<edges>
<edge id="E0" from="N7" to="N8" numLanes="2" speed="10.292409983979859"/>
<edge id="-E0" from="N8" to="N7" numLanes="2" speed="11.433685864285433"/>
<edge id="E1" from="N7" to="N14" numLanes="2" speed="12.060298083374247"/>
<edge id="-E1" from="N14" to="N7" numLanes="2" speed="12.52176091890344"/>
<edge id="E2" from="N7" to="N6" numLanes="2" speed="9.683387639669846"/>
<edge id="-E2" from="N6" to="N7" numLanes="2" speed="9.084042049328685"/>
<edge id="E3" from="N7" to="N1" numLanes="2" speed="9.571340647649858"/>
<edge id="-E3" from="N1" to="N7" numLanes="2" speed="13.171461413551759"/>
<edge id="E4" from="N8" to="N9" numLanes="2" speed="12.341873461851325"/>
<edge id="-E4" from="N9" to="N8" numLanes="2" speed="10.020849899993028"/>
<edge id="E5" from="N8" to="N15" numLanes="2" speed="12.304649975786454"/>
<edge id="-E5" from="N15" to="N8" numLanes="2" speed="10.420731709136666"/>
<edge id="E7" from="N8" to="N2" numLanes="2" speed="9.704477785705869"/>
<edge id="-E7" from="N2" to="N8" numLanes="2" speed="10.77170647057318"/>
<edge id="E8" from="N9" to="N10" numLanes="2" speed="10.910857427241014"/>
<edge id="-E8" from="N10" to="N9" numLanes="2" speed="11.300385102451433"/>
<edge id="E9" from="N9" to="N16" numLanes="2" speed="10.998697138932917"/>
<edge id="-E9" from="N16" to="N9" numLanes="2" speed="13.066602456058765"/>
<edge id="E11" from="N9" to="N3" numLanes="2" speed="12.906239701727536"/>
<edge id="-E11" from="N3" to="N9" numLanes="2" speed="11.268880938689513"/>
<edge id="E12" from="N10" to="N11" numLanes="2" speed="11.132778074593176"/>
<edge id="-E12" from="N11" to="N10" numLanes="2" speed="11.119107248006895"/>
<edge id="E13" from="N10" to="N17" numLanes="2" speed="13.12070902649312"/>
<edge id="-E13" from="N17" to="N10" numLanes="2" speed="9.038502403732295"/>
<edge id="E15" from="N10" to="N4" numLanes="2" speed="11.99184830637825"/>
<edge id="-E15" from="N4" to="N10" numLanes="2" speed="13.12890918146054"/>
<edge id="E16" from="N11" to="N12" numLanes="2" speed="9.951597834437868"/>
<edge id="-E16" from="N12" to="N11" numLanes="2" speed="12.138521468221517"/>
<edge id="E17" from="N11" to="N18" numLanes="2" speed="13.331133747570117"/>
<edge id="-E17" from="N18" to="N11" numLanes="2" speed="11.624884815281213"/>
<edge id="E19" from="N11" to="N5" numLanes="2" speed="12.774717033722423"/>
<edge id="-E19" from="N5" to="N11" numLanes="2" speed="11.900669383185953"/>
<edge id="E20" from="N14" to="N15" numLanes="2" speed="12.969158194948914"/>
<edge id="-E20" from="N15" to="N14" numLanes="2" speed="10.78908033293113"/>
<edge id="E21" from="N14" to="N21" numLanes="2" speed="12.59459670440563"/>
<edge id="-E21" from="N21" to="N14" numLanes="2" speed="12.139916904118305"/>
<edge id="E22" from="N14" to="N13" numLanes="2" speed="9.674575628595615"/>
<edge id="-E22" from="N13" to="N14" numLanes="2" speed="11.140639181037246"/>
<edge id="E24" from="N15" to="N16" numLanes="2" speed="9.05087603467804"/>
<edge id="-E24" from="N16" to="N15" numLanes="2" speed="11.386163637183984"/>
<edge id="E25" from="N15" to="N22" numLanes="2" speed="10.05984174087825"/>
<edge id="-E25" from="N22" to="N15" numLanes="2" speed="10.437556699738238"/>
<edge id="E28" from="N16" to="N17" numLanes="2" speed="10.648506048897724"/>
<edge id="-E28" from="N17" to="N16" numLanes="2" speed="10.355247798086673"/>
<edge id="E29" from="N16" to="N23" numLanes="2" speed="11.500544502082402"/>
<edge id="-E29" from="N23" to="N16" numLanes="2" speed="12.253946854768401"/>
<edge id="E32" from="N17" to="N18" numLanes="2" speed="9.398709471030966"/>
<edge id="-E32" from="N18" to="N17" numLanes="2" speed="13.062559320978067"/>
<edge id="E33" from="N17" to="N24" numLanes="2" speed="10.98798819932168"/>
<edge id="-E33" from="N24" to="N17" numLanes="2" speed="9.049087717626207"/>
<edge id="E36" from="N18" to="N19" numLanes="2" speed="11.857993292256138"/>
<edge id="-E36" from="N19" to="N18" numLanes="2" speed="11.050356188764983"/>
<edge id="E37" from="N18" to="N25" numLanes="2" speed="12.546574644991523"/>
<edge id="-E37" from="N25" to="N18" numLanes="2" speed="10.517427905372445"/>
<edge id="E40" from="N21" to="N22" numLanes="2" speed="13.216079105472595"/>
<edge id="-E40" from="N22" to="N21" numLanes="2" speed="12.95936434652129"/>
<edge id="E41" from="N21" to="N28" numLanes="2" speed="10.016035762406522"/>
<edge id="-E41" from="N28" to="N21" numLanes="2" speed="11.344117124076728"/>
<edge id="E42" from="N21" to="N20" numLanes="2" speed="12.528658907306797"/>
<edge id="-E42" from="N20" to="N21" numLanes="2" speed="12.090538547642428"/>
<edge id="E44" from="N22" to="N23" numLanes="2" speed="10.164600407747642"/>
<edge id="-E44" from="N23" to="N22" numLanes="2" speed="11.710873200432772"/>
<edge id="E45" from="N22" to="N29" numLanes="2" speed="11.895809933084337"/>
<edge id="-E45" from="N29" to="N22" numLanes="2" speed="13.281149957075801"/>
<edge id="E48" from="N23" to="N24" numLanes="2" speed="10.092461008177935"/>
<edge id="-E48" from="N24" to="N23" numLanes="2" speed="11.627298183655004"/>
<edge id="E49" from="N23" to="N30" numLanes="2" speed="11.903307138443502"/>
<edge id="-E49" from="N30" to="N23" numLanes="2" speed="9.035034186014757"/>
<edge id="E52" from="N24" to="N25" numLanes="2" speed="13.230946169457724"/>
<edge id="-E52" from="N25" to="N24" numLanes="2" speed="10.971025772887167"/>
<edge id="E53" from="N24" to="N31" numLanes="2" speed="12.976041921774842"/>
<edge id="-E53" from="N31" to="N24" numLanes="2" speed="10.023292665046775"/>
<edge id="E56" from="N25" to="N26" numLanes="2" speed="12.795241202522984"/>
<edge id="-E56" from="N26" to="N25" numLanes="2" speed="9.286967188058611"/>
<edge id="E57" from="N25" to="N32" numLanes="2" speed="10.03012735551943"/>
<edge id="-E57" from="N32" to="N25" numLanes="2" speed="10.285306514267917"/>
<edge id="E60" from="N28" to="N29" numLanes="2" speed="10.415894036278164"/>
<edge id="-E60" from="N29" to="N28" numLanes="2" speed="11.06627943035739"/>
<edge id="E61" from="N28" to="N35" numLanes="2" speed="10.577507929019074"/>
<edge id="-E61" from="N35" to="N28" numLanes="2" speed="10.13114910254538"/>
<edge id="E62" from="N28" to="N27" numLanes="2" speed="12.751944860816515"/>
<edge id="-E62" from="N27" to="N28" numLanes="2" speed="11.133167392958832"/>
<edge id="E64" from="N29" to="N30" numLanes="2" speed="12.175014034672959"/>
<edge id="-E64" from="N30" to="N29" numLanes="2" speed="10.447856681410856"/>
<edge id="E65" from="N29" to="N36" numLanes="2" speed="12.391503302927553"/>
<edge id="-E65" from="N36" to="N29" numLanes="2" speed="10.327242357171963"/>
<edge id="E68" from="N30" to="N31" numLanes="2" speed="12.853800716643262"/>
<edge id="-E68" from="N31" to="N30" numLanes="2" speed="10.620262591717623"/>
<edge id="E69" from="N30" to="N37" numLanes="2" speed="11.447800155837403"/>
<edge id="-E69" from="N37" to="N30" numLanes="2" speed="10.064556846076892"/>
<edge id="E72" from="N31" to="N32" numLanes="2" speed="10.037005067877006"/>
<edge id="-E72" from="N32" to="N31" numLanes="2" speed="10.54658930264081"/>
<edge id="E73" from="N31" to="N38" numLanes="2" speed="11.276355316809319"/>
<edge id="-E73" from="N38" to="N31" numLanes="2" speed="10.955748084355566"/>
<edge id="E76" from="N32" to="N33" numLanes="2" speed="9.831494570866285"/>
<edge id="-E76" from="N33" to="N32" numLanes="2" speed="10.042077339645374"/>
<edge id="E77" from="N32" to="N39" numLanes="2" speed="8.994604733716187"/>
<edge id="-E77" from="N39" to="N32" numLanes="2" speed="10.60295759444735"/>
<edge id="E80" from="N35" to="N36" numLanes="2" speed="12.22995252516381"/>
<edge id="-E80" from="N36" to="N35" numLanes="2" speed="10.692373590566861"/>
<edge id="E81" from="N35" to="N41" numLanes="2" speed="11.511787463958251"/>
<edge id="-E81" from="N41" to="N35" numLanes="2" speed="12.758125085871391"/>
<edge id="E82" from="N35" to="N34" numLanes="2" speed="10.614290035068592"/>
<edge id="-E82" from="N34" to="N35" numLanes="2" speed="10.748775220404085"/>
<edge id="E84" from="N36" to="N37" numLanes="2" speed="12.776414768010966"/>
<edge id="-E84" from="N37" to="N36" numLanes="2" speed="9.470977258907835"/>
<edge id="E85" from="N36" to="N42" numLanes="2" speed="12.278829756218943"/>
<edge id="-E85" from="N42" to="N36" numLanes="2" speed="9.075715864600342"/>
<edge id="E88" from="N37" to="N38" numLanes="2" speed="11.433865947588425"/>
<edge id="-E88" from="N38" to="N37" numLanes="2" speed="10.320765123421761"/>
<edge id="E89" from="N37" to="N43" numLanes="2" speed="12.337666969113632"/>
<edge id="-E89" from="N43" to="N37" numLanes="2" speed="12.631992835356312"/>
<edge id="E92" from="N38" to="N39" numLanes="2" speed="9.639281740207563"/>
<edge id="-E92" from="N39" to="N38" numLanes="2" speed="9.287834733719095"/>
<edge id="E93" from="N38" to="N44" numLanes="2" speed="10.48790582182058"/>
<edge id="-E93" from="N44" to="N38" numLanes="2" speed="12.223878946230219"/>
<edge id="E96" from="N39" to="N40" numLanes="2" speed="10.104121703338167"/>
<edge id="-E96" from="N40" to="N39" numLanes="2" speed="9.772667183273626"/>
<edge id="E97" from="N39" to="N45" numLanes="2" speed="10.001859628578895"/>
<edge id="-E97" from="N45" to="N39" numLanes="2" speed="12.879944306713059"/>
</edges>