<routes>
  <flow id="F0_1" begin="0.00" departLane="random" fromTaz="taz_0" toTaz="taz_1" end="3600" probability="0.022723475355054302"/>
  <flow id="F0_2" begin="0.00" departLane="random" fromTaz="taz_0" toTaz="taz_2" end="3600" probability="0.0013366750208855473"/>
  <flow id="F0_3" begin="0.00" departLane="random" fromTaz="taz_0" toTaz="taz_3" end="3600" probability="0.0026733500417710945"/>
  <flow id="F0_4" begin="0.00" departLane="random" fromTaz="taz_0" toTaz="taz_4" end="3600" probability="0.01871345029239766"/>
  <flow id="F0_5" begin="0.00" departLane="random" fromTaz="taz_0" toTaz="taz_5" end="3600" probability="0.008020050125313283"/>
  <flow id="F0_6" begin="0.00" departLane="random" fromTaz="taz_0" toTaz="taz_6" end="3600" probability="0.014703425229741019"/>
  <flow id="F0_7" begin="0.00" departLane="random" fromTaz="taz_0" toTaz="taz_7" end="3600" probability="0.008020050125313283"/>
  <flow id="F0_8" begin="0.00" departLane="random" fromTaz="taz_0" toTaz="taz_8" end="3600" probability="0.010693400167084378"/>
  <flow id="F0_9" begin="0.00" departLane="random" fromTaz="taz_0" toTaz="taz_9" end="3600" probability="0.024060150375939848"/>
  <flow id="F0_10" begin="0.00" departLane="random" fromTaz="taz_0" toTaz="taz_10" end="3600" probability="0.0026733500417710945"/>
  <flow id="F0_11" begin="0.00" departLane="random" fromTaz="taz_0" toTaz="taz_11" end="3600" probability="0.026733500417710943"/>
  <flow id="F0_12" begin="0.00" departLane="random" fromTaz="taz_0" toTaz="taz_12" end="3600" probability="0.026733500417710943"/>
  <flow id="F0_13" begin="0.00" departLane="random" fromTaz="taz_0" toTaz="taz_13" end="3600" probability="0.025396825396825397"/>
  <flow id="F0_14" begin="0.00" departLane="random" fromTaz="taz_0" toTaz="taz_14" end="3600" probability="0.020050125313283207"/>
  <flow id="F0_15" begin="0.00" departLane="random" fromTaz="taz_0" toTaz="taz_15" end="3600" probability="0.0026733500417710945"/>
  <flow id="F0_16" begin="0.00" departLane="random" fromTaz="taz_0" toTaz="taz_16" end="3600" probability="0.0040100250626566416"/>
  <flow id="F0_17" begin="0.00" departLane="random" fromTaz="taz_0" toTaz="taz_17" end="3600" probability="0.017376775271512112"/>
  <flow id="F0_18" begin="0.00" departLane="random" fromTaz="taz_0" toTaz="taz_18" end="3600" probability="0.013366750208855471"/>
  <flow id="F0_19" begin="0.00" departLane="random" fromTaz="taz_0" toTaz="taz_19" end="3600" probability="0.014703425229741019"/>
  <flow id="F1_0" begin="0.00" departLane="random" fromTaz="taz_1" toTaz="taz_0" end="3600" probability="0.012030075187969924"/>
  <flow id="F1_2" begin="0.00" departLane="random" fromTaz="taz_1" toTaz="taz_2" end="3600" probability="0.01871345029239766"/>
  <flow id="F1_3" begin="0.00" departLane="random" fromTaz="taz_1" toTaz="taz_3" end="3600" probability="0.021386800334168756"/>
  <flow id="F1_4" begin="0.00" departLane="random" fromTaz="taz_1" toTaz="taz_4" end="3600" probability="0.022723475355054302"/>
  <flow id="F1_5" begin="0.00" departLane="random" fromTaz="taz_1" toTaz="taz_5" end="3600" probability="0.008020050125313283"/>
  <flow id="F1_6" begin="0.00" departLane="random" fromTaz="taz_1" toTaz="taz_6" end="3600" probability="0.022723475355054302"/>
  <flow id="F1_7" begin="0.00" departLane="random" fromTaz="taz_1" toTaz="taz_7" end="3600" probability="0.021386800334168756"/>
  <flow id="F1_8" begin="0.00" departLane="random" fromTaz="taz_1" toTaz="taz_8" end="3600" probability="0.00935672514619883"/>
  <flow id="F1_9" begin="0.00" departLane="random" fromTaz="taz_1" toTaz="taz_9" end="3600" probability="0.0026733500417710945"/>
  <flow id="F1_10" begin="0.00" departLane="random" fromTaz="taz_1" toTaz="taz_10" end="3600" probability="0.006683375104427736"/>
  <flow id="F1_11" begin="0.00" departLane="random" fromTaz="taz_1" toTaz="taz_11" end="3600" probability="0.0040100250626566416"/>
  <flow id="F1_12" begin="0.00" departLane="random" fromTaz="taz_1" toTaz="taz_12" end="3600" probability="0.010693400167084378"/>
  <flow id="F1_13" begin="0.00" departLane="random" fromTaz="taz_1" toTaz="taz_13" end="3600" probability="0.006683375104427736"/>
  <flow id="F1_14" begin="0.00" departLane="random" fromTaz="taz_1" toTaz="taz_14" end="3600" probability="0.016040100250626566"/>
  <flow id="F1_15" begin="0.00" departLane="random" fromTaz="taz_1" toTaz="taz_15" end="3600" probability="0.013366750208855471"/>
  <flow id="F1_16" begin="0.00" departLane="random" fromTaz="taz_1" toTaz="taz_16" end="3600" probability="0.013366750208855471"/>
  <flow id="F1_17" begin="0.00" departLane="random" fromTaz="taz_1" toTaz="taz_17" end="3600" probability="0.0040100250626566416"/>
  <flow id="F1_18" begin="0.00" departLane="random" fromTaz="taz_1" toTaz="taz_18" end="3600" probability="0.024060150375939848"/>
  <flow id="F1_19" begin="0.00" departLane="random" fromTaz="taz_1" toTaz="taz_19" end="3600" probability="0.022723475355054302"/>
  <flow id="F2_0" begin="0.00" departLane="random" fromTaz="taz_2" toTaz="taz_0" end="3600" probability="0.008020050125313283"/>
  <flow id="F2_1" begin="0.00" departLane="random" fromTaz="taz_2" toTaz="taz_1" end="3600" probability="0.026733500417710943"/>
  <flow id="F2_3" begin="0.00" departLane="random" fromTaz="taz_2" toTaz="taz_3" end="3600" probability="0.008020050125313283"/>
  <flow id="F2_4" begin="0.00" departLane="random" fromTaz="taz_2" toTaz="taz_4" end="3600" probability="0.017376775271512112"/>
  <flow id="F2_5" begin="0.00" departLane="random" fromTaz="taz_2" toTaz="taz_5" end="3600" probability="0.012030075187969924"/>
  <flow id="F2_6" begin="0.00" departLane="random" fromTaz="taz_2" toTaz="taz_6" end="3600" probability="0.014703425229741019"/>
  <flow id="F2_7" begin="0.00" departLane="random" fromTaz="taz_2" toTaz="taz_7" end="3600" probability="0.014703425229741019"/>
  <flow id="F2_8" begin="0.00" departLane="random" fromTaz="taz_2" toTaz="taz_8" end="3600" probability="0.006683375104427736"/>
  <flow id="F2_9" begin="0.00" departLane="random" fromTaz="taz_2" toTaz="taz_9" end="3600" probability="0.012030075187969924"/>
  <flow id="F2_10" begin="0.00" departLane="random" fromTaz="taz_2" toTaz="taz_10" end="3600" probability="0.012030075187969924"/>
  <flow id="F2_11" begin="0.00" departLane="random" fromTaz="taz_2" toTaz="taz_11" end="3600" probability="0.012030075187969924"/>
  <flow id="F2_12" begin="0.00" departLane="random" fromTaz="taz_2" toTaz="taz_12" end="3600" probability="0.026733500417710943"/>
  <flow id="F2_13" begin="0.00" departLane="random" fromTaz="taz_2" toTaz="taz_13" end="3600" probability="0.014703425229741019"/>
  <flow id="F2_14" begin="0.00" departLane="random" fromTaz="taz_2" toTaz="taz_14" end="3600" probability="0.014703425229741019"/>
  <flow id="F2_15" begin="0.00" departLane="random" fromTaz="taz_2" toTaz="taz_15" end="3600" probability="0.00935672514619883"/>
  <flow id="F2_16" begin="0.00" departLane="random" fromTaz="taz_2" toTaz="taz_16" end="3600" probability="0.0040100250626566416"/>
  <flow id="F2_17" begin="0.00" departLane="random" fromTaz="taz_2" toTaz="taz_17" end="3600" probability="0.005346700083542189"/>
  <flow id="F2_18" begin="0.00" departLane="random" fromTaz="taz_2" toTaz="taz_18" end="3600" probability="0.012030075187969924"/>
  <flow id="F2_19" begin="0.00" departLane="random" fromTaz="taz_2" toTaz="taz_19" end="3600" probability="0.0026733500417710945"/>
  <flow id="F3_0" begin="0.00" departLane="random" fromTaz="taz_3" toTaz="taz_0" end="3600" probability="0.021386800334168756"/>
  <flow id="F3_1" begin="0.00" departLane="random" fromTaz="taz_3" toTaz="taz_1" end="3600" probability="0.014703425229741019"/>
  <flow id="F3_2" begin="0.00" departLane="random" fromTaz="taz_3" toTaz="taz_2" end="3600" probability="0.022723475355054302"/>
  <flow id="F3_4" begin="0.00" departLane="random" fromTaz="taz_3" toTaz="taz_4" end="3600" probability="0.025396825396825397"/>
  <flow id="F3_5" begin="0.00" departLane="random" fromTaz="taz_3" toTaz="taz_5" end="3600" probability="0.0013366750208855473"/>
  <flow id="F3_6" begin="0.00" departLane="random" fromTaz="taz_3" toTaz="taz_6" end="3600" probability="0.024060150375939848"/>
  <flow id="F3_7" begin="0.00" departLane="random" fromTaz="taz_3" toTaz="taz_7" end="3600" probability="0.020050125313283207"/>
  <flow id="F3_8" begin="0.00" departLane="random" fromTaz="taz_3" toTaz="taz_8" end="3600" probability="0.012030075187969924"/>
  <flow id="F3_9" begin="0.00" departLane="random" fromTaz="taz_3" toTaz="taz_9" end="3600" probability="0.024060150375939848"/>
  <flow id="F3_10" begin="0.00" departLane="random" fromTaz="taz_3" toTaz="taz_10" end="3600" probability="0.012030075187969924"/>
  <flow id="F3_11" begin="0.00" departLane="random" fromTaz="taz_3" toTaz="taz_11" end="3600" probability="0.026733500417710943"/>
  <flow id="F3_12" begin="0.00" departLane="random" fromTaz="taz_3" toTaz="taz_12" end="3600" probability="0.00935672514619883"/>
  <flow id="F3_13" begin="0.00" departLane="random" fromTaz="taz_3" toTaz="taz_13" end="3600" probability="0.0013366750208855473"/>
  <flow id="F3_14" begin="0.00" departLane="random" fromTaz="taz_3" toTaz="taz_14" end="3600" probability="0.024060150375939848"/>
  <flow id="F3_15" begin="0.00" departLane="random" fromTaz="taz_3" toTaz="taz_15" end="3600" probability="0.0040100250626566416"/>
  <flow id="F3_16" begin="0.00" departLane="random" fromTaz="taz_3" toTaz="taz_16" end="3600" probability="0.024060150375939848"/>
  <flow id="F3_17" begin="0.00" departLane="random" fromTaz="taz_3" toTaz="taz_17" end="3600" probability="0.020050125313283207"/>
  <flow id="F3_18" begin="0.00" departLane="random" fromTaz="taz_3" toTaz="taz_18" end="3600" probability="0.022723475355054302"/>
  <flow id="F3_19" begin="0.00" departLane="random" fromTaz="taz_3" toTaz="taz_19" end="3600" probability="0.012030075187969924"/>
  <flow id="F4_0" begin="0.00" departLane="random" fromTaz="taz_4" toTaz="taz_0" end="3600" probability="0.016040100250626566"/>
  <flow id="F4_1" begin="0.00" departLane="random" fromTaz="taz_4" toTaz="taz_1" end="3600" probability="0.0013366750208855473"/>
  <flow id="F4_2" begin="0.00" departLane="random" fromTaz="taz_4" toTaz="taz_2" end="3600" probability="0.013366750208855471"/>
  <flow id="F4_3" begin="0.00" departLane="random" fromTaz="taz_4" toTaz="taz_3" end="3600" probability="0.016040100250626566"/>
  <flow id="F4_5" begin="0.00" departLane="random" fromTaz="taz_4" toTaz="taz_5" end="3600" probability="0.017376775271512112"/>
  <flow id="F4_6" begin="0.00" departLane="random" fromTaz="taz_4" toTaz="taz_6" end="3600" probability="0.014703425229741019"/>
  <flow id="F4_7" begin="0.00" departLane="random" fromTaz="taz_4" toTaz="taz_7" end="3600" probability="0.0026733500417710945"/>
  <flow id="F4_8" begin="0.00" departLane="random" fromTaz="taz_4" toTaz="taz_8" end="3600" probability="0.0013366750208855473"/>
  <flow id="F4_9" begin="0.00" departLane="random" fromTaz="taz_4" toTaz="taz_9" end="3600" probability="0.022723475355054302"/>
  <flow id="F4_10" begin="0.00" departLane="random" fromTaz="taz_4" toTaz="taz_10" end="3600" probability="0.0013366750208855473"/>
  <flow id="F4_11" begin="0.00" departLane="random" fromTaz="taz_4" toTaz="taz_11" end="3600" probability="0.005346700083542189"/>
  <flow id="F4_12" begin="0.00" departLane="random" fromTaz="taz_4" toTaz="taz_12" end="3600" probability="0.01871345029239766"/>
  <flow id="F4_13" begin="0.00" departLane="random" fromTaz="taz_4" toTaz="taz_13" end="3600" probability="0.012030075187969924"/>
  <flow id="F4_14" begin="0.00" departLane="random" fromTaz="taz_4" toTaz="taz_14" end="3600" probability="0.024060150375939848"/>
  <flow id="F4_15" begin="0.00" departLane="random" fromTaz="taz_4" toTaz="taz_15" end="3600" probability="0.006683375104427736"/>
  <flow id="F4_16" begin="0.00" departLane="random" fromTaz="taz_4" toTaz="taz_16" end="3600" probability="0.012030075187969924"/>
  <flow id="F4_17" begin="0.00" departLane="random" fromTaz="taz_4" toTaz="taz_17" end="3600" probability="0.006683375104427736"/>
  <flow id="F4_18" begin="0.00" departLane="random" fromTaz="taz_4" toTaz="taz_18" end="3600" probability="0.012030075187969924"/>
  <flow id="F4_19" begin="0.00" departLane="random" fromTaz="taz_4" toTaz="taz_19" end="3600" probability="0.008020050125313283"/>
  <flow id="F5_0" begin="0.00" departLane="random" fromTaz="taz_5" toTaz="taz_0" end="3600" probability="0.01871345029239766"/>
  <flow id="F5_1" begin="0.00" departLane="random" fromTaz="taz_5" toTaz="taz_1" end="3600" probability="0.021386800334168756"/>
  <flow id="F5_2" begin="0.00" departLane="random" fromTaz="taz_5" toTaz="taz_2" end="3600" probability="0.012030075187969924"/>
  <flow id="F5_3" begin="0.00" departLane="random" fromTaz="taz_5" toTaz="taz_3" end="3600" probability="0.025396825396825397"/>
  <flow id="F5_4" begin="0.00" departLane="random" fromTaz="taz_5" toTaz="taz_4" end="3600" probability="0.021386800334168756"/>
  <flow id="F5_6" begin="0.00" departLane="random" fromTaz="taz_5" toTaz="taz_6" end="3600" probability="0.022723475355054302"/>
  <flow id="F5_7" begin="0.00" departLane="random" fromTaz="taz_5" toTaz="taz_7" end="3600" probability="0.005346700083542189"/>
  <flow id="F5_8" begin="0.00" departLane="random" fromTaz="taz_5" toTaz="taz_8" end="3600" probability="0.022723475355054302"/>
  <flow id="F5_9" begin="0.00" departLane="random" fromTaz="taz_5" toTaz="taz_9" end="3600" probability="0.005346700083542189"/>
  <flow id="F5_10" begin="0.00" departLane="random" fromTaz="taz_5" toTaz="taz_10" end="3600" probability="0.026733500417710943"/>
  <flow id="F5_11" begin="0.00" departLane="random" fromTaz="taz_5" toTaz="taz_11" end="3600" probability="0.024060150375939848"/>
  <flow id="F5_12" begin="0.00" departLane="random" fromTaz="taz_5" toTaz="taz_12" end="3600" probability="0.010693400167084378"/>
  <flow id="F5_13" begin="0.00" departLane="random" fromTaz="taz_5" toTaz="taz_13" end="3600" probability="0.0040100250626566416"/>
  <flow id="F5_14" begin="0.00" departLane="random" fromTaz="taz_5" toTaz="taz_14" end="3600" probability="0.022723475355054302"/>
  <flow id="F5_15" begin="0.00" departLane="random" fromTaz="taz_5" toTaz="taz_15" end="3600" probability="0.008020050125313283"/>
  <flow id="F5_16" begin="0.00" departLane="random" fromTaz="taz_5" toTaz="taz_16" end="3600" probability="0.020050125313283207"/>
  <flow id="F5_17" begin="0.00" departLane="random" fromTaz="taz_5" toTaz="taz_17" end="3600" probability="0.024060150375939848"/>
  <flow id="F5_18" begin="0.00" departLane="random" fromTaz="taz_5" toTaz="taz_18" end="3600" probability="0.01871345029239766"/>
  <flow id="F5_19" begin="0.00" departLane="random" fromTaz="taz_5" toTaz="taz_19" end="3600" probability="0.0013366750208855473"/>
  <flow id="F6_0" begin="0.00" departLane="random" fromTaz="taz_6" toTaz="taz_0" end="3600" probability="0.008020050125313283"/>
  <flow id="F6_1" begin="0.00" departLane="random" fromTaz="taz_6" toTaz="taz_1" end="3600" probability="0.006683375104427736"/>
  <flow id="F6_2" begin="0.00" departLane="random" fromTaz="taz_6" toTaz="taz_2" end="3600" probability="0.021386800334168756"/>
  <flow id="F6_3" begin="0.00" departLane="random" fromTaz="taz_6" toTaz="taz_3" end="3600" probability="0.026733500417710943"/>
  <flow id="F6_4" begin="0.00" departLane="random" fromTaz="taz_6" toTaz="taz_4" end="3600" probability="0.014703425229741019"/>
  <flow id="F6_5" begin="0.00" departLane="random" fromTaz="taz_6" toTaz="taz_5" end="3600" probability="0.025396825396825397"/>
  <flow id="F6_7" begin="0.00" departLane="random" fromTaz="taz_6" toTaz="taz_7" end="3600" probability="0.024060150375939848"/>
  <flow id="F6_8" begin="0.00" departLane="random" fromTaz="taz_6" toTaz="taz_8" end="3600" probability="0.01871345029239766"/>
  <flow id="F6_9" begin="0.00" departLane="random" fromTaz="taz_6" toTaz="taz_9" end="3600" probability="0.00935672514619883"/>
  <flow id="F6_10" begin="0.00" departLane="random" fromTaz="taz_6" toTaz="taz_10" end="3600" probability="0.026733500417710943"/>
  <flow id="F6_11" begin="0.00" departLane="random" fromTaz="taz_6" toTaz="taz_11" end="3600" probability="0.006683375104427736"/>
  <flow id="F6_12" begin="0.00" departLane="random" fromTaz="taz_6" toTaz="taz_12" end="3600" probability="0.022723475355054302"/>
  <flow id="F6_13" begin="0.00" departLane="random" fromTaz="taz_6" toTaz="taz_13" end="3600" probability="0.010693400167084378"/>
  <flow id="F6_14" begin="0.00" departLane="random" fromTaz="taz_6" toTaz="taz_14" end="3600" probability="0.024060150375939848"/>
  <flow id="F6_15" begin="0.00" departLane="random" fromTaz="taz_6" toTaz="taz_15" end="3600" probability="0.020050125313283207"/>
  <flow id="F6_16" begin="0.00" departLane="random" fromTaz="taz_6" toTaz="taz_16" end="3600" probability="0.013366750208855471"/>
  <flow id="F6_17" begin="0.00" departLane="random" fromTaz="taz_6" toTaz="taz_17" end="3600" probability="0.01871345029239766"/>
  <flow id="F6_18" begin="0.00" departLane="random" fromTaz="taz_6" toTaz="taz_18" end="3600" probability="0.016040100250626566"/>
  <flow id="F6_19" begin="0.00" departLane="random" fromTaz="taz_6" toTaz="taz_19" end="3600" probability="0.0040100250626566416"/>
  <flow id="F7_0" begin="0.00" departLane="random" fromTaz="taz_7" toTaz="taz_0" end="3600" probability="0.022723475355054302"/>
  <flow id="F7_1" begin="0.00" departLane="random" fromTaz="taz_7" toTaz="taz_1" end="3600" probability="0.025396825396825397"/>
  <flow id="F7_2" begin="0.00" departLane="random" fromTaz="taz_7" toTaz="taz_2" end="3600" probability="0.026733500417710943"/>
  <flow id="F7_3" begin="0.00" departLane="random" fromTaz="taz_7" toTaz="taz_3" end="3600" probability="0.01871345029239766"/>
  <flow id="F7_4" begin="0.00" departLane="random" fromTaz="taz_7" toTaz="taz_4" end="3600" probability="0.013366750208855471"/>
  <flow id="F7_5" begin="0.00" departLane="random" fromTaz="taz_7" toTaz="taz_5" end="3600" probability="0.01871345029239766"/>
  <flow id="F7_6" begin="0.00" departLane="random" fromTaz="taz_7" toTaz="taz_6" end="3600" probability="0.026733500417710943"/>
  <flow id="F7_8" begin="0.00" departLane="random" fromTaz="taz_7" toTaz="taz_8" end="3600" probability="0.022723475355054302"/>
  <flow id="F7_9" begin="0.00" departLane="random" fromTaz="taz_7" toTaz="taz_9" end="3600" probability="0.025396825396825397"/>
  <flow id="F7_10" begin="0.00" departLane="random" fromTaz="taz_7" toTaz="taz_10" end="3600" probability="0.006683375104427736"/>
  <flow id="F7_11" begin="0.00" departLane="random" fromTaz="taz_7" toTaz="taz_11" end="3600" probability="0.025396825396825397"/>
  <flow id="F7_12" begin="0.00" departLane="random" fromTaz="taz_7" toTaz="taz_12" end="3600" probability="0.014703425229741019"/>
  <flow id="F7_13" begin="0.00" departLane="random" fromTaz="taz_7" toTaz="taz_13" end="3600" probability="0.0026733500417710945"/>
  <flow id="F7_14" begin="0.00" departLane="random" fromTaz="taz_7" toTaz="taz_14" end="3600" probability="0.022723475355054302"/>
  <flow id="F7_15" begin="0.00" departLane="random" fromTaz="taz_7" toTaz="taz_15" end="3600" probability="0.005346700083542189"/>
  <flow id="F7_16" begin="0.00" departLane="random" fromTaz="taz_7" toTaz="taz_16" end="3600" probability="0.014703425229741019"/>
  <flow id="F7_17" begin="0.00" departLane="random" fromTaz="taz_7" toTaz="taz_17" end="3600" probability="0.025396825396825397"/>
  <flow id="F7_18" begin="0.00" departLane="random" fromTaz="taz_7" toTaz="taz_18" end="3600" probability="0.0040100250626566416"/>
  <flow id="F7_19" begin="0.00" departLane="random" fromTaz="taz_7" toTaz="taz_19" end="3600" probability="0.024060150375939848"/>
  <flow id="F8_0" begin="0.00" departLane="random" fromTaz="taz_8" toTaz="taz_0" end="3600" probability="0.013366750208855471"/>
  <flow id="F8_1" begin="0.00" departLane="random" fromTaz="taz_8" toTaz="taz_1" end="3600" probability="0.012030075187969924"/>
  <flow id="F8_2" begin="0.00" departLane="random" fromTaz="taz_8" toTaz="taz_2" end="3600" probability="0.026733500417710943"/>
  <flow id="F8_3" begin="0.00" departLane="random" fromTaz="taz_8" toTaz="taz_3" end="3600" probability="0.025396825396825397"/>
  <flow id="F8_4" begin="0.00" departLane="random" fromTaz="taz_8" toTaz="taz_4" end="3600" probability="0.0040100250626566416"/>
  <flow id="F8_5" begin="0.00" departLane="random" fromTaz="taz_8" toTaz="taz_5" end="3600" probability="0.020050125313283207"/>
  <flow id="F8_6" begin="0.00" departLane="random" fromTaz="taz_8" toTaz="taz_6" end="3600" probability="0.005346700083542189"/>
  <flow id="F8_7" begin="0.00" departLane="random" fromTaz="taz_8" toTaz="taz_7" end="3600" probability="0.022723475355054302"/>
  <flow id="F8_9" begin="0.00" departLane="random" fromTaz="taz_8" toTaz="taz_9" end="3600" probability="0.006683375104427736"/>
  <flow id="F8_10" begin="0.00" departLane="random" fromTaz="taz_8" toTaz="taz_10" end="3600" probability="0.013366750208855471"/>
  <flow id="F8_11" begin="0.00" departLane="random" fromTaz="taz_8" toTaz="taz_11" end="3600" probability="0.00935672514619883"/>
  <flow id="F8_12" begin="0.00" departLane="random" fromTaz="taz_8" toTaz="taz_12" end="3600" probability="0.020050125313283207"/>
  <flow id="F8_13" begin="0.00" departLane="random" fromTaz="taz_8" toTaz="taz_13" end="3600" probability="0.0013366750208855473"/>
  <flow id="F8_14" begin="0.00" departLane="random" fromTaz="taz_8" toTaz="taz_14" end="3600" probability="0.014703425229741019"/>
  <flow id="F8_15" begin="0.00" departLane="random" fromTaz="taz_8" toTaz="taz_15" end="3600" probability="0.008020050125313283"/>
  <flow id="F8_16" begin="0.00" departLane="random" fromTaz="taz_8" toTaz="taz_16" end="3600" probability="0.013366750208855471"/>
  <flow id="F8_17" begin="0.00" departLane="random" fromTaz="taz_8" toTaz="taz_17" end="3600" probability="0.020050125313283207"/>
  <flow id="F8_18" begin="0.00" departLane="random" fromTaz="taz_8" toTaz="taz_18" end="3600" probability="0.0040100250626566416"/>
  <flow id="F8_19" begin="0.00" departLane="random" fromTaz="taz_8" toTaz="taz_19" end="3600" probability="0.025396825396825397"/>
  <flow id="F9_0" begin="0.00" departLane="random" fromTaz="taz_9" toTaz="taz_0" end="3600" probability="0.014703425229741019"/>
  <flow id="F9_1" begin="0.00" departLane="random" fromTaz="taz_9" toTaz="taz_1" end="3600" probability="0.010693400167084378"/>
  <flow id="F9_2" begin="0.00" departLane="random" fromTaz="taz_9" toTaz="taz_2" end="3600" probability="0.024060150375939848"/>
  <flow id="F9_3" begin="0.00" departLane="random" fromTaz="taz_9" toTaz="taz_3" end="3600" probability="0.010693400167084378"/>
  <flow id="F9_4" begin="0.00" departLane="random" fromTaz="taz_9" toTaz="taz_4" end="3600" probability="0.010693400167084378"/>
  <flow id="F9_5" begin="0.00" departLane="random" fromTaz="taz_9" toTaz="taz_5" end="3600" probability="0.022723475355054302"/>
  <flow id="F9_6" begin="0.00" departLane="random" fromTaz="taz_9" toTaz="taz_6" end="3600" probability="0.010693400167084378"/>
  <flow id="F9_7" begin="0.00" departLane="random" fromTaz="taz_9" toTaz="taz_7" end="3600" probability="0.017376775271512112"/>
  <flow id="F9_8" begin="0.00" departLane="random" fromTaz="taz_9" toTaz="taz_8" end="3600" probability="0.005346700083542189"/>
  <flow id="F9_10" begin="0.00" departLane="random" fromTaz="taz_9" toTaz="taz_10" end="3600" probability="0.012030075187969924"/>
  <flow id="F9_11" begin="0.00" departLane="random" fromTaz="taz_9" toTaz="taz_11" end="3600" probability="0.020050125313283207"/>
  <flow id="F9_12" begin="0.00" departLane="random" fromTaz="taz_9" toTaz="taz_12" end="3600" probability="0.008020050125313283"/>
  <flow id="F9_13" begin="0.00" departLane="random" fromTaz="taz_9" toTaz="taz_13" end="3600" probability="0.022723475355054302"/>
  <flow id="F9_14" begin="0.00" departLane="random" fromTaz="taz_9" toTaz="taz_14" end="3600" probability="0.014703425229741019"/>
  <flow id="F9_15" begin="0.00" departLane="random" fromTaz="taz_9" toTaz="taz_15" end="3600" probability="0.01871345029239766"/>
  <flow id="F9_16" begin="0.00" departLane="random" fromTaz="taz_9" toTaz="taz_16" end="3600" probability="0.00935672514619883"/>
  <flow id="F9_17" begin="0.00" departLane="random" fromTaz="taz_9" toTaz="taz_17" end="3600" probability="0.026733500417710943"/>
  <flow id="F9_18" begin="0.00" departLane="random" fromTaz="taz_9" toTaz="taz_18" end="3600" probability="0.014703425229741019"/>
  <flow id="F9_19" begin="0.00" departLane="random" fromTaz="taz_9" toTaz="taz_19" end="3600" probability="0.021386800334168756"/>
  <flow id="F10_0" begin="0.00" departLane="random" fromTaz="taz_10" toTaz="taz_0" end="3600" probability="0.005346700083542189"/>
  <flow id="F10_1" begin="0.00" departLane="random" fromTaz="taz_10" toTaz="taz_1" end="3600" probability="0.0013366750208855473"/>
  <flow id="F10_2" begin="0.00" departLane="random" fromTaz="taz_10" toTaz="taz_2" end="3600" probability="0.016040100250626566"/>
  <flow id="F10_3" begin="0.00" departLane="random" fromTaz="taz_10" toTaz="taz_3" end="3600" probability="0.017376775271512112"/>
  <flow id="F10_4" begin="0.00" departLane="random" fromTaz="taz_10" toTaz="taz_4" end="3600" probability="0.006683375104427736"/>
  <flow id="F10_5" begin="0.00" departLane="random" fromTaz="taz_10" toTaz="taz_5" end="3600" probability="0.008020050125313283"/>
  <flow id="F10_6" begin="0.00" departLane="random" fromTaz="taz_10" toTaz="taz_6" end="3600" probability="0.020050125313283207"/>
  <flow id="F10_7" begin="0.00" departLane="random" fromTaz="taz_10" toTaz="taz_7" end="3600" probability="0.013366750208855471"/>
  <flow id="F10_8" begin="0.00" departLane="random" fromTaz="taz_10" toTaz="taz_8" end="3600" probability="0.0026733500417710945"/>
  <flow id="F10_9" begin="0.00" departLane="random" fromTaz="taz_10" toTaz="taz_9" end="3600" probability="0.0040100250626566416"/>
  <flow id="F10_11" begin="0.00" departLane="random" fromTaz="taz_10" toTaz="taz_11" end="3600" probability="0.006683375104427736"/>
  <flow id="F10_12" begin="0.00" departLane="random" fromTaz="taz_10" toTaz="taz_12" end="3600" probability="0.021386800334168756"/>
  <flow id="F10_13" begin="0.00" departLane="random" fromTaz="taz_10" toTaz="taz_13" end="3600" probability="0.020050125313283207"/>
  <flow id="F10_14" begin="0.00" departLane="random" fromTaz="taz_10" toTaz="taz_14" end="3600" probability="0.0026733500417710945"/>
  <flow id="F10_15" begin="0.00" departLane="random" fromTaz="taz_10" toTaz="taz_15" end="3600" probability="0.0013366750208855473"/>
  <flow id="F10_16" begin="0.00" departLane="random" fromTaz="taz_10" toTaz="taz_16" end="3600" probability="0.025396825396825397"/>
  <flow id="F10_17" begin="0.00" departLane="random" fromTaz="taz_10" toTaz="taz_17" end="3600" probability="0.006683375104427736"/>
  <flow id="F10_18" begin="0.00" departLane="random" fromTaz="taz_10" toTaz="taz_18" end="3600" probability="0.026733500417710943"/>
  <flow id="F10_19" begin="0.00" departLane="random" fromTaz="taz_10" toTaz="taz_19" end="3600" probability="0.005346700083542189"/>
  <flow id="F11_0" begin="0.00" departLane="random" fromTaz="taz_11" toTaz="taz_0" end="3600" probability="0.020050125313283207"/>
  <flow id="F11_1" begin="0.00" departLane="random" fromTaz="taz_11" toTaz="taz_1" end="3600" probability="0.010693400167084378"/>
  <flow id="F11_2" begin="0.00" departLane="random" fromTaz="taz_11" toTaz="taz_2" end="3600" probability="0.026733500417710943"/>
  <flow id="F11_3" begin="0.00" departLane="random" fromTaz="taz_11" toTaz="taz_3" end="3600" probability="0.013366750208855471"/>
  <flow id="F11_4" begin="0.00" departLane="random" fromTaz="taz_11" toTaz="taz_4" end="3600" probability="0.016040100250626566"/>
  <flow id="F11_5" begin="0.00" departLane="random" fromTaz="taz_11" toTaz="taz_5" end="3600" probability="0.008020050125313283"/>
  <flow id="F11_6" begin="0.00" departLane="random" fromTaz="taz_11" toTaz="taz_6" end="3600" probability="0.008020050125313283"/>
  <flow id="F11_7" begin="0.00" departLane="random" fromTaz="taz_11" toTaz="taz_7" end="3600" probability="0.010693400167084378"/>
  <flow id="F11_8" begin="0.00" departLane="random" fromTaz="taz_11" toTaz="taz_8" end="3600" probability="0.026733500417710943"/>
  <flow id="F11_9" begin="0.00" departLane="random" fromTaz="taz_11" toTaz="taz_9" end="3600" probability="0.016040100250626566"/>
  <flow id="F11_10" begin="0.00" departLane="random" fromTaz="taz_11" toTaz="taz_10" end="3600" probability="0.0040100250626566416"/>
  <flow id="F11_12" begin="0.00" departLane="random" fromTaz="taz_11" toTaz="taz_12" end="3600" probability="0.0026733500417710945"/>
  <flow id="F11_13" begin="0.00" departLane="random" fromTaz="taz_11" toTaz="taz_13" end="3600" probability="0.016040100250626566"/>
  <flow id="F11_14" begin="0.00" departLane="random" fromTaz="taz_11" toTaz="taz_14" end="3600" probability="0.016040100250626566"/>
  <flow id="F11_15" begin="0.00" departLane="random" fromTaz="taz_11" toTaz="taz_15" end="3600" probability="0.014703425229741019"/>
  <flow id="F11_16" begin="0.00" departLane="random" fromTaz="taz_11" toTaz="taz_16" end="3600" probability="0.010693400167084378"/>
  <flow id="F11_17" begin="0.00" departLane="random" fromTaz="taz_11" toTaz="taz_17" end="3600" probability="0.0040100250626566416"/>
  <flow id="F11_18" begin="0.00" departLane="random" fromTaz="taz_11" toTaz="taz_18" end="3600" probability="0.0026733500417710945"/>
  <flow id="F11_19" begin="0.00" departLane="random" fromTaz="taz_11" toTaz="taz_19" end="3600" probability="0.0013366750208855473"/>