<edges>
<edge id="E0" from="N7" to="N8" numLanes="2" speed="10.56210685973655"/>
<edge id="-E0" from="N8" to="N7" numLanes="2" speed="12.59825010177515"/>
<edge id="E1" from="N7" to="N14" numLanes="2" speed="9.303441645500508"/>
<edge id="-E1" from="N14" to="N7" numLanes="2" speed="12.876591273511524"/>
<edge id="E2" from="N7" to="N6" numLanes="2" speed="10.195585315081754"/>
<edge id="-E2" from="N6" to="N7" numLanes="2" speed="11.67328206110085"/>
<edge id="E3" from="N7" to="N1" numLanes="2" speed="12.521545529108295"/>
<edge id="-E3" from="N1" to="N7" numLanes="2" speed="9.041348616524681"/>
<edge id="E4" from="N8" to="N9" numLanes="2" speed="8.931564337925096"/>
<edge id="-E4" from="N9" to="N8" numLanes="2" speed="12.8818389976463"/>
<edge id="E5" from="N8" to="N15" numLanes="2" speed="12.688688160774058"/>
<edge id="-E5" from="N15" to="N8" numLanes="2" speed="10.379618558874089"/>
<edge id="E7" from="N8" to="N2" numLanes="2" speed="13.204513571029414"/>
<edge id="-E7" from="N2" to="N8" numLanes="2" speed="10.463508773595377"/>
<edge id="E8" from="N9" to="N10" numLanes="2" speed="10.321415765952716"/>
<edge id="-E8" from="N10" to="N9" numLanes="2" speed="10.552118463760332"/>
<edge id="E9" from="N9" to="N16" numLanes="2" speed="12.188948246603418"/>
<edge id="-E9" from="N16" to="N9" numLanes="2" speed="12.264917549604483"/>
<edge id="E11" from="N9" to="N3" numLanes="2" speed="13.002864086060647"/>
<edge id="-E11" from="N3" to="N9" numLanes="2" speed="10.681200627423353"/>
<edge id="E12" from="N10" to="N11" numLanes="2" speed="12.062989747212953"/>
<edge id="-E12" from="N11" to="N10" numLanes="2" speed="12.877569198849061"/>
<edge id="E13" from="N10" to="N17" numLanes="2" speed="10.718708626678394"/>
<edge id="-E13" from="N17" to="N10" numLanes="2" speed="9.935384117726924"/>
<edge id="E15" from="N10" to="N4" numLanes="2" speed="9.189573084267083"/>
<edge id="-E15" from="N4" to="N10" numLanes="2" speed="11.725715417856124"/>
<edge id="E16" from="N11" to="N12" numLanes="2" speed="11.325194150398485"/>
<edge id="-E16" from="N12" to="N11" numLanes="2" speed="12.738295421017707"/>
<edge id="E17" from="N11" to="N18" numLanes="2" speed="12.69217936806374"/>
<edge id="-E17" from="N18" to="N11" numLanes="2" speed="8.952732876331666"/>
<edge id="E19" from="N11" to="N5" numLanes="2" speed="9.349789343540916"/>
<edge id="-E19" from="N5" to="N11" numLanes="2" speed="9.70887442535082"/>
<edge id="E20" from="N14" to="N15" numLanes="2" speed="11.96151916379533"/>
<edge id="-E20" from="N15" to="N14" numLanes="2" speed="10.96889134607926"/>
<edge id="E21" from="N14" to="N21" numLanes="2" speed="10.997640871153383"/>
<edge id="-E21" from="N21" to="N14" numLanes="2" speed="11.227951460972545"/>
<edge id="E22" from="N14" to="N13" numLanes="2" speed="13.218858609955863"/>
<edge id="-E22" from="N13" to="N14" numLanes="2" speed="12.122335857449166"/>
<edge id="E24" from="N15" to="N16" numLanes="2" speed="9.964273375529489"/>
<edge id="-E24" from="N16" to="N15" numLanes="2" speed="13.011065520313299"/>
<edge id="E25" from="N15" to="N22" numLanes="2" speed="12.857026120303011"/>
<edge id="-E25" from="N22" to="N15" numLanes="2" speed="11.166091761051913"/>
<edge id="E28" from="N16" to="N17" numLanes="2" speed="12.640204078522052"/>
<edge id="-E28" from="N17" to="N16" numLanes="2" speed="12.53808060535105"/>
<edge id="E29" from="N16" to="N23" numLanes="2" speed="10.17274014486383"/>
<edge id="-E29" from="N23" to="N16" numLanes="2" speed="10.425619920008439"/>
<edge id="E32" from="N17" to="N18" numLanes="2" speed="9.12719283892506"/>
<edge id="-E32" from="N18" to="N17" numLanes="2" speed="10.753136524956382"/>
<edge id="E33" from="N17" to="N24" numLanes="2" speed="12.45838785920622"/>
<edge id="-E33" from="N24" to="N17" numLanes="2" speed="11.441275494205428"/>
<edge id="E36" from="N18" to="N19" numLanes="2" speed="10.980850440964314"/>
<edge id="-E36" from="N19" to="N18" numLanes="2" speed="13.0815077905371"/>
<edge id="E37" from="N18" to="N25" numLanes="2" speed="11.070713227973231"/>
<edge id="-E37" from="N25" to="N18" numLanes="2" speed="12.397216451138357"/>
<edge id="E40" from="N21" to="N22" numLanes="2" speed="9.255648682465448"/>
<edge id="-E40" from="N22" to="N21" numLanes="2" speed="9.125575424107277"/>
<edge id="E41" from="N21" to="N28" numLanes="2" speed="12.295496252120962"/>
<edge id="-E41" from="N28" to="N21" numLanes="2" speed="9.150523531432922"/>
<edge id="E42" from="N21" to="N20" numLanes="2" speed="11.689510257892264"/>
<edge id="-E42" from="N20" to="N21" numLanes="2" speed="10.524733751932704"/>
<edge id="E44" from="N22" to="N23" numLanes="2" speed="9.552218360114189"/>
<edge id="-E44" from="N23" to="N22" numLanes="2" speed="12.065598966537374"/>
<edge id="E45" from="N22" to="N29" numLanes="2" speed="12.811754248068873"/>
<edge id="-E45" from="N29" to="N22" numLanes="2" speed="8.943219492662488"/>
<edge id="E48" from="N23" to="N24" numLanes="2" speed="9.497082673360739"/>
<edge id="-E48" from="N24" to="N23" numLanes="2" speed="12.26362052107287"/>
<edge id="E49" from="N23" to="N30" numLanes="2" speed="9.677017896477793"/>
<edge id="-E49" from="N30" to="N23" numLanes="2" speed="10.342708804715352"/>
<edge id="E52" from="N24" to="N25" numLanes="2" speed="12.716161439684468"/>
<edge id="-E52" from="N25" to="N24" numLanes="2" speed="13.191247009591606"/>
<edge id="E53" from="N24" to="N31" numLanes="2" speed="11.03320696546692"/>
<edge id="-E53" from="N31" to="N24" numLanes="2" speed="12.065790090170774"/>
<edge id="E56" from="N25" to="N26" numLanes="2" speed="9.47619215318114"/>
<edge id="-E56" from="N26" to="N25" numLanes="2" speed="8.910394753276416"/>
<edge id="E57" from="N25" to="N32" numLanes="2" speed="13.267151622950855"/>
<edge id="-E57" from="N32" to="N25" numLanes="2" speed="12.334976403319237"/>
<edge id="E60" from="N28" to="N29" numLanes="2" speed="11.930686305683274"/>
<edge id="-E60" from="N29" to="N28" numLanes="2" speed="10.168688670493244"/>
<edge id="E61" from="N28" to="N35" numLanes="2" speed="9.851980504457192"/>
<edge id="-E61" from="N35" to="N28" numLanes="2" speed="12.094615641792254"/>
<edge id="E62" from="N28" to="N27" numLanes="2" speed="12.982848287323442"/>
<edge id="-E62" from="N27" to="N28" numLanes="2" speed="9.00570379587847"/>
<edge id="E64" from="N29" to="N30" numLanes="2" speed="9.961363378312605"/>
<edge id="-E64" from="N30" to="N29" numLanes="2" speed="11.265393374908585"/>
<edge id="E65" from="N29" to="N36" numLanes="2" speed="9.056984527241784"/>
<edge id="-E65" from="N36" to="N29" numLanes="2" speed="11.638553548773483"/>
<edge id="E68" from="N30" to="N31" numLanes="2" speed="9.79975766264809"/>
<edge id="-E68" from="N31" to="N30" numLanes="2" speed="10.950739338767251"/>
<edge id="E69" from="N30" to="N37" numLanes="2" speed="10.105343028414852"/>
<edge id="-E69" from="N37" to="N30" numLanes="2" speed="9.838291178125345"/>
<edge id="E72" from="N31" to="N32" numLanes="2" speed="12.828795033846013"/>
<edge id="-E72" from="N32" to="N31" numLanes="2" speed="13.317467957858515"/>
<edge id="E73" from="N31" to="N38" numLanes="2" speed="13.329961805468441"/>
<edge id="-E73" from="N38" to="N31" numLanes="2" speed="11.341550202546145"/>
<edge id="E76" from="N32" to="N33" numLanes="2" speed="9.708982169553533"/>
<edge id="-E76" from="N33" to="N32" numLanes="2" speed="11.349673885145418"/>
<edge id="E77" from="N32" to="N39" numLanes="2" speed="12.453755845969505"/>
<edge id="-E77" from="N39" to="N32" numLanes="2" speed="10.499915532186078"/>
<edge id="E80" from="N35" to="N36" numLanes="2" speed="11.293738742091207"/>
<edge id="-E80" from="N36" to="N35" numLanes="2" speed="10.109959810142337"/>
<edge id="E81" from="N35" to="N41" numLanes="2" speed="11.435338515346428"/>
<edge id="-E81" from="N41" to="N35" numLanes="2" speed="9.85175655220376"/>
<edge id="E82" from="N35" to="N34" numLanes="2" speed="12.59596109296569"/>
<edge id="-E82" from="N34" to="N35" numLanes="2" speed="12.578489777543803"/>
<edge id="E84" from="N36" to="N37" numLanes="2" speed="12.353340082872306"/>
<edge id="-E84" from="N37" to="N36" numLanes="2" speed="11.020298465129404"/>
<edge id="E85" from="N36" to="N42" numLanes="2" speed="11.983634274704087"/>
<edge id="-E85" from="N42" to="N36" numLanes="2" speed="11.705685107390448"/>
<edge id="E88" from="N37" to="N38" numLanes="2" speed="12.93772306762583"/>
<edge id="-E88" from="N38" to="N37" numLanes="2" speed="11.943986272267363"/>
<edge id="E89" from="N37" to="N43" numLanes="2" speed="11.938662841284682"/>
<edge id="-E89" from="N43" to="N37" numLanes="2" speed="9.98373929050272"/>
<edge id="E92" from="N38" to="N39" numLanes="2" speed="10.364151343043297"/>
<edge id="-E92" from="N39" to="N38" numLanes="2" speed="10.568952247919208"/>
<edge id="E93" from="N38" to="N44" numLanes="2" speed="11.255853085748932"/>
<edge id="-E93" from="N44" to="N38" numLanes="2" speed="11.72799304110532"/>
<edge id="E96" from="N39" to="N40" numLanes="2" speed="11.124432598929136"/>
<edge id="-E96" from="N40" to="N39" numLanes="2" speed="10.036100992163128"/>
<edge id="E97" from="N39" to="N45" numLanes="2" speed="10.74344760062364"/>
<edge id="-E97" from="N45" to="N39" numLanes="2" speed="10.65343362501067"/>
</edges>