<net xmlns:xsi="http://www.w3.org/2001/XMLSchema-instance" version="1.20" junctionCornerDetail="5" limitTurnSpeed="13.89" xsi:noNamespaceSchemaLocation="http://sumo.dlr.de/xsd/net_file.xsd">

    <location netOffset="0.00,0.00" convBoundary="0.00,0.00,12000.00,12000.00" origBoundary="0.00,0.00,12000.00,12000.00" projParameter="!" />

    <edge id=":N10_0" function="internal">
        <lane id=":N10_0_0" index="0" speed="10.34" length="9.03" shape="1195.20,8410.40 1194.85,8407.95 1193.80,8406.20 1192.05,8405.15 1189.60,8404.80" />
    </edge>
    <edge id=":N10_1" function="internal">
        <lane id=":N10_1_0" index="0" speed="11.21" length="20.80" shape="1195.20,8410.40 1195.20,8389.60" />
        <lane id=":N10_1_1" index="1" speed="11.21" length="20.80" shape="1198.40,8410.40 1198.40,8389.60" />
    </edge>
    <edge id=":N10_3" function="internal">
        <lane id=":N10_3_0" index="0" speed="12.12" length="5.01" shape="1198.40,8410.40 1199.11,8405.44" />
    </edge>
    <edge id=":N10_16" function="internal">
        <lane id=":N10_16_0" index="0" speed="12.12" length="14.34" shape="1199.11,8405.44 1199.15,8405.15 1201.40,8401.40 1205.15,8399.15 1210.40,8398.40" />
    </edge>
    <edge id=":N10_4" function="internal">
        <lane id=":N10_4_0" index="0" speed="10.09" length="9.03" shape="1210.40,8404.80 1207.95,8405.15 1206.20,8406.20 1205.15,8407.95 1204.80,8410.40" />
    </edge>
    <edge id=":N10_5" function="internal">
        <lane id=":N10_5_0" index="0" speed="10.52" length="20.80" shape="1210.40,8404.80 1189.60,8404.80" />
        <lane id=":N10_5_1" index="1" speed="10.52" length="20.80" shape="1210.40,8401.60 1189.60,8401.60" />
    </edge>
    <edge id=":N10_7" function="internal">
        <lane id=":N10_7_0" index="0" speed="10.17" length="5.01" shape="1210.40,8401.60 1205.44,8400.89" />
    </edge>
    <edge id=":N10_17" function="internal">
        <lane id=":N10_17_0" index="0" speed="10.17" length="14.34" shape="1205.44,8400.89 1205.15,8400.85 1201.40,8398.60 1199.15,8394.85 1198.40,8389.60" />
    </edge>
    <edge id=":N10_8" function="internal">
        <lane id=":N10_8_0" index="0" speed="10.34" length="9.03" shape="1204.80,8389.60 1205.15,8392.05 1206.20,8393.80 1207.95,8394.85 1210.40,8395.20" />
    </edge>
    <edge id=":N10_9" function="internal">
        <lane id=":N10_9_0" index="0" speed="11.02" length="20.80" shape="1204.80,8389.60 1204.80,8410.40" />
        <lane id=":N10_9_1" index="1" speed="11.02" length="20.80" shape="1201.60,8389.60 1201.60,8410.40" />
    </edge>
    <edge id=":N10_11" function="internal">
        <lane id=":N10_11_0" index="0" speed="11.45" length="5.01" shape="1201.60,8389.60 1200.89,8394.56" />
    </edge>
    <edge id=":N10_18" function="internal">
        <lane id=":N10_18_0" index="0" speed="11.45" length="14.34" shape="1200.89,8394.56 1200.85,8394.85 1198.60,8398.60 1194.85,8400.85 1189.60,8401.60" />
    </edge>
    <edge id=":N10_12" function="internal">
        <lane id=":N10_12_0" index="0" speed="10.34" length="9.03" shape="1189.60,8395.20 1192.05,8394.85 1193.80,8393.80 1194.85,8392.05 1195.20,8389.60" />
    </edge>
    <edge id=":N10_13" function="internal">
        <lane id=":N10_13_0" index="0" speed="13.12" length="20.80" shape="1189.60,8395.20 1210.40,8395.20" />
        <lane id=":N10_13_1" index="1" speed="13.12" length="20.80" shape="1189.60,8398.40 1210.40,8398.40" />
    </edge>
    <edge id=":N10_15" function="internal">
        <lane id=":N10_15_0" index="0" speed="12.13" length="5.01" shape="1189.60,8398.40 1194.56,8399.11" />
    </edge>
    <edge id=":N10_19" function="internal">
        <lane id=":N10_19_0" index="0" speed="12.13" length="14.34" shape="1194.56,8399.11 1194.85,8399.15 1198.60,8401.40 1200.85,8405.15 1201.60,8410.40" />
    </edge>
    <edge id=":N11_0" function="internal">
        <lane id=":N11_0_0" index="0" speed="10.34" length="9.03" shape="1195.20,10810.40 1194.85,10807.95 1193.80,10806.20 1192.05,10805.15 1189.60,10804.80" />
    </edge>
    <edge id=":N11_1" function="internal">
        <lane id=":N11_1_0" index="0" speed="11.63" length="20.80" shape="1195.20,10810.40 1195.20,10789.60" />
        <lane id=":N11_1_1" index="1" speed="11.63" length="20.80" shape="1198.40,10810.40 1198.40,10789.60" />
    </edge>
    <edge id=":N11_3" function="internal">
        <lane id=":N11_3_0" index="0" speed="12.73" length="5.01" shape="1198.40,10810.40 1199.11,10805.44" />
    </edge>
    <edge id=":N11_16" function="internal">
        <lane id=":N11_16_0" index="0" speed="12.73" length="14.34" shape="1199.11,10805.44 1199.15,10805.15 1201.40,10801.40 1205.15,10799.15 1210.40,10798.40" />
    </edge>
    <edge id=":N11_4" function="internal">
        <lane id=":N11_4_0" index="0" speed="10.34" length="9.03" shape="1210.40,10804.80 1207.95,10805.15 1206.20,10806.20 1205.15,10807.95 1204.80,10810.40" />
    </edge>
    <edge id=":N11_5" function="internal">
        <lane id=":N11_5_0" index="0" speed="12.20" length="20.80" shape="1210.40,10804.80 1189.60,10804.80" />
        <lane id=":N11_5_1" index="1" speed="12.20" length="20.80" shape="1210.40,10801.60 1189.60,10801.60" />
    </edge>
    <edge id=":N11_7" function="internal">
        <lane id=":N11_7_0" index="0" speed="11.37" length="5.01" shape="1210.40,10801.60 1205.44,10800.89" />
    </edge>
    <edge id=":N11_17" function="internal">
        <lane id=":N11_17_0" index="0" speed="11.37" length="14.34" shape="1205.44,10800.89 1205.15,10800.85 1201.40,10798.60 1199.15,10794.85 1198.40,10789.60" />
    </edge>
    <edge id=":N11_8" function="internal">
        <lane id=":N11_8_0" index="0" speed="10.34" length="9.03" shape="1204.80,10789.60 1205.15,10792.05 1206.20,10793.80 1207.95,10794.85 1210.40,10795.20" />
    </edge>
    <edge id=":N11_9" function="internal">
        <lane id=":N11_9_0" index="0" speed="10.54" length="20.80" shape="1204.80,10789.60 1204.80,10810.40" />
        <lane id=":N11_9_1" index="1" speed="10.54" length="20.80" shape="1201.60,10789.60 1201.60,10810.40" />
    </edge>
    <edge id=":N11_11" function="internal">
        <lane id=":N11_11_0" index="0" speed="11.95" length="5.01" shape="1201.60,10789.60 1200.89,10794.56" />
    </edge>
    <edge id=":N11_18" function="internal">
        <lane id=":N11_18_0" index="0" speed="11.95" length="14.34" shape="1200.89,10794.56 1200.85,10794.85 1198.60,10798.60 1194.85,10800.85 1189.60,10801.60" />
    </edge>
    <edge id=":N11_12" function="internal">
        <lane id=":N11_12_0" index="0" speed="10.34" length="9.03" shape="1189.60,10795.20 1192.05,10794.85 1193.80,10793.80 1194.85,10792.05 1195.20,10789.60" />
    </edge>
    <edge id=":N11_13" function="internal">
        <lane id=":N11_13_0" index="0" speed="12.62" length="20.80" shape="1189.60,10795.20 1210.40,10795.20" />
        <lane id=":N11_13_1" index="1" speed="12.62" length="20.80" shape="1189.60,10798.40 1210.40,10798.40" />
    </edge>
    <edge id=":N11_15" function="internal">
        <lane id=":N11_15_0" index="0" speed="10.93" length="5.01" shape="1189.60,10798.40 1194.56,10799.11" />
    </edge>
    <edge id=":N11_19" function="internal">
        <lane id=":N11_19_0" index="0" speed="10.93" length="14.34" shape="1194.56,10799.11 1194.85,10799.15 1198.60,10801.40 1200.85,10805.15 1201.60,10810.40" />
    </edge>
    <edge id=":N14_0" function="internal">
        <lane id=":N14_0_0" index="0" speed="10.34" length="9.03" shape="3595.20,1210.40 3594.85,1207.95 3593.80,1206.20 3592.05,1205.15 3589.60,1204.80" />
    </edge>
    <edge id=":N14_1" function="internal">
        <lane id=":N14_1_0" index="0" speed="10.23" length="20.80" shape="3595.20,1210.40 3595.20,1189.60" />
        <lane id=":N14_1_1" index="1" speed="10.23" length="20.80" shape="3598.40,1210.40 3598.40,1189.60" />
    </edge>
    <edge id=":N14_3" function="internal">
        <lane id=":N14_3_0" index="0" speed="11.69" length="5.01" shape="3598.40,1210.40 3599.11,1205.44" />
    </edge>
    <edge id=":N14_16" function="internal">
        <lane id=":N14_16_0" index="0" speed="11.69" length="14.34" shape="3599.11,1205.44 3599.15,1205.15 3601.40,1201.40 3605.15,1199.15 3610.40,1198.40" />
    </edge>
    <edge id=":N14_4" function="internal">
        <lane id=":N14_4_0" index="0" speed="10.34" length="9.03" shape="3610.40,1204.80 3607.95,1205.15 3606.20,1206.20 3605.15,1207.95 3604.80,1210.40" />
    </edge>
    <edge id=":N14_5" function="internal">
        <lane id=":N14_5_0" index="0" speed="12.33" length="20.80" shape="3610.40,1204.80 3589.60,1204.80" />
        <lane id=":N14_5_1" index="1" speed="12.33" length="20.80" shape="3610.40,1201.60 3589.60,1201.60" />
    </edge>
    <edge id=":N14_7" function="internal">
        <lane id=":N14_7_0" index="0" speed="10.91" length="5.01" shape="3610.40,1201.60 3605.44,1200.89" />
    </edge>
    <edge id=":N14_17" function="internal">
        <lane id=":N14_17_0" index="0" speed="10.91" length="14.34" shape="3605.44,1200.89 3605.15,1200.85 3601.40,1198.60 3599.15,1194.85 3598.40,1189.60" />
    </edge>
    <edge id=":N14_8" function="internal">
        <lane id=":N14_8_0" index="0" speed="10.34" length="9.03" shape="3604.80,1189.60 3605.15,1192.05 3606.20,1193.80 3607.95,1194.85 3610.40,1195.20" />
    </edge>
    <edge id=":N14_9" function="internal">
        <lane id=":N14_9_0" index="0" speed="12.05" length="20.80" shape="3604.80,1189.60 3604.80,1210.40" />
        <lane id=":N14_9_1" index="1" speed="12.05" length="20.80" shape="3601.60,1189.60 3601.60,1210.40" />
    </edge>
    <edge id=":N14_11" function="internal">
        <lane id=":N14_11_0" index="0" speed="11.83" length="5.01" shape="3601.60,1189.60 3600.89,1194.56" />
    </edge>
    <edge id=":N14_18" function="internal">
        <lane id=":N14_18_0" index="0" speed="11.83" length="14.34" shape="3600.89,1194.56 3600.85,1194.85 3598.60,1198.60 3594.85,1200.85 3589.60,1201.60" />
    </edge>
    <edge id=":N14_12" function="internal">
        <lane id=":N14_12_0" index="0" speed="10.34" length="9.03" shape="3589.60,1195.20 3592.05,1194.85 3593.80,1193.80 3594.85,1192.05 3595.20,1189.60" />
    </edge>
    <edge id=":N14_13" function="internal">
        <lane id=":N14_13_0" index="0" speed="12.33" length="20.80" shape="3589.60,1195.20 3610.40,1195.20" />
        <lane id=":N14_13_1" index="1" speed="12.33" length="20.80" shape="3589.60,1198.40 3610.40,1198.40" />
    </edge>
    <edge id=":N14_15" function="internal">
        <lane id=":N14_15_0" index="0" speed="12.51" length="5.01" shape="3589.60,1198.40 3594.56,1199.11" />
    </edge>
    <edge id=":N14_19" function="internal">
        <lane id=":N14_19_0" index="0" speed="12.51" length="14.34" shape="3594.56,1199.11 3594.85,1199.15 3598.60,1201.40 3600.85,1205.15 3601.60,1210.40" />
    </edge>
    <edge id=":N15_0" function="internal">
        <lane id=":N15_0_0" index="0" speed="10.34" length="9.03" shape="3595.20,3610.40 3594.85,3607.95 3593.80,3606.20 3592.05,3605.15 3589.60,3604.80" />
    </edge>
    <edge id=":N15_1" function="internal">
        <lane id=":N15_1_0" index="0" speed="11.09" length="20.80" shape="3595.20,3610.40 3595.20,3589.60" />
        <lane id=":N15_1_1" index="1" speed="11.09" length="20.80" shape="3598.40,3610.40 3598.40,3589.60" />
    </edge>
    <edge id=":N15_3" function="internal">
        <lane id=":N15_3_0" index="0" speed="10.72" length="5.01" shape="3598.40,3610.40 3599.11,3605.44" />
    </edge>
    <edge id=":N15_16" function="internal">
        <lane id=":N15_16_0" index="0" speed="10.72" length="14.34" shape="3599.11,3605.44 3599.15,3605.15 3601.40,3601.40 3605.15,3599.15 3610.40,3598.40" />
    </edge>
    <edge id=":N15_4" function="internal">
        <lane id=":N15_4_0" index="0" speed="9.74" length="9.03" shape="3610.40,3604.80 3607.95,3605.15 3606.20,3606.20 3605.15,3607.95 3604.80,3610.40" />
    </edge>
    <edge id=":N15_5" function="internal">
        <lane id=":N15_5_0" index="0" speed="10.43" length="20.80" shape="3610.40,3604.80 3589.60,3604.80" />
        <lane id=":N15_5_1" index="1" speed="10.43" length="20.80" shape="3610.40,3601.60 3589.60,3601.60" />
    </edge>
    <edge id=":N15_7" function="internal">
        <lane id=":N15_7_0" index="0" speed="10.61" length="5.01" shape="3610.40,3601.60 3605.44,3600.89" />
    </edge>
    <edge id=":N15_17" function="internal">
        <lane id=":N15_17_0" index="0" speed="10.61" length="14.34" shape="3605.44,3600.89 3605.15,3600.85 3601.40,3598.60 3599.15,3594.85 3598.40,3589.60" />
    </edge>
    <edge id=":N15_8" function="internal">
        <lane id=":N15_8_0" index="0" speed="10.34" length="9.03" shape="3604.80,3589.60 3605.15,3592.05 3606.20,3593.80 3607.95,3594.85 3610.40,3595.20" />
    </edge>
    <edge id=":N15_9" function="internal">
        <lane id=":N15_9_0" index="0" speed="11.01" length="20.80" shape="3604.80,3589.60 3604.80,3610.40" />
        <lane id=":N15_9_1" index="1" speed="11.01" length="20.80" shape="3601.60,3589.60 3601.60,3610.40" />
    </edge>
    <edge id=":N15_11" function="internal">
        <lane id=":N15_11_0" index="0" speed="11.69" length="5.01" shape="3601.60,3589.60 3600.89,3594.56" />
    </edge>
    <edge id=":N15_18" function="internal">
        <lane id=":N15_18_0" index="0" speed="11.69" length="14.34" shape="3600.89,3594.56 3600.85,3594.85 3598.60,3598.60 3594.85,3600.85 3589.60,3601.60" />
    </edge>
    <edge id=":N15_12" function="internal">
        <lane id=":N15_12_0" index="0" speed="10.34" length="9.03" shape="3589.60,3595.20 3592.05,3594.85 3593.80,3593.80 3594.85,3592.05 3595.20,3589.60" />
    </edge>
    <edge id=":N15_13" function="internal">
        <lane id=":N15_13_0" index="0" speed="11.18" length="20.80" shape="3589.60,3595.20 3610.40,3595.20" />
        <lane id=":N15_13_1" index="1" speed="11.18" length="20.80" shape="3589.60,3598.40 3610.40,3598.40" />
    </edge>
    <edge id=":N15_15" function="internal">
        <lane id=":N15_15_0" index="0" speed="10.68" length="5.01" shape="3589.60,3598.40 3594.56,3599.11" />
    </edge>
    <edge id=":N15_19" function="internal">
        <lane id=":N15_19_0" index="0" speed="10.68" length="14.34" shape="3594.56,3599.11 3594.85,3599.15 3598.60,3601.40 3600.85,3605.15 3601.60,3610.40" />
    </edge>
    <edge id=":N16_0" function="internal">
        <lane id=":N16_0_0" index="0" speed="10.34" length="9.03" shape="3595.20,6010.40 3594.85,6007.95 3593.80,6006.20 3592.05,6005.15 3589.60,6004.80" />
    </edge>
    <edge id=":N16_1" function="internal">
        <lane id=":N16_1_0" index="0" speed="10.87" length="20.80" shape="3595.20,6010.40 3595.20,5989.60" />
        <lane id=":N16_1_1" index="1" speed="10.87" length="20.80" shape="3598.40,6010.40 3598.40,5989.60" />
    </edge>
    <edge id=":N16_3" function="internal">
        <lane id=":N16_3_0" index="0" speed="10.93" length="5.01" shape="3598.40,6010.40 3599.11,6005.44" />
    </edge>
    <edge id=":N16_16" function="internal">
        <lane id=":N16_16_0" index="0" speed="10.93" length="14.34" shape="3599.11,6005.44 3599.15,6005.15 3601.40,6001.40 3605.15,5999.15 3610.40,5998.40" />
    </edge>
    <edge id=":N16_4" function="internal">
        <lane id=":N16_4_0" index="0" speed="10.34" length="9.03" shape="3610.40,6004.80 3607.95,6005.15 3606.20,6006.20 3605.15,6007.95 3604.80,6010.40" />
    </edge>
    <edge id=":N16_5" function="internal">
        <lane id=":N16_5_0" index="0" speed="12.66" length="20.80" shape="3610.40,6004.80 3589.60,6004.80" />
        <lane id=":N16_5_1" index="1" speed="12.66" length="20.80" shape="3610.40,6001.60 3589.60,6001.60" />
    </edge>
    <edge id=":N16_7" function="internal">
        <lane id=":N16_7_0" index="0" speed="11.82" length="5.01" shape="3610.40,6001.60 3605.44,6000.89" />
    </edge>
    <edge id=":N16_17" function="internal">
        <lane id=":N16_17_0" index="0" speed="11.82" length="14.34" shape="3605.44,6000.89 3605.15,6000.85 3601.40,5998.60 3599.15,5994.85 3598.40,5989.60" />
    </edge>
    <edge id=":N16_8" function="internal">
        <lane id=":N16_8_0" index="0" speed="10.28" length="9.03" shape="3604.80,5989.60 3605.15,5992.05 3606.20,5993.80 3607.95,5994.85 3610.40,5995.20" />
    </edge>
    <edge id=":N16_9" function="internal">
        <lane id=":N16_9_0" index="0" speed="9.85" length="20.80" shape="3604.80,5989.60 3604.80,6010.40" />
        <lane id=":N16_9_1" index="1" speed="9.85" length="20.80" shape="3601.60,5989.60 3601.60,6010.40" />
    </edge>
    <edge id=":N16_11" function="internal">
        <lane id=":N16_11_0" index="0" speed="11.06" length="5.01" shape="3601.60,5989.60 3600.89,5994.56" />
    </edge>
    <edge id=":N16_18" function="internal">
        <lane id=":N16_18_0" index="0" speed="11.06" length="14.34" shape="3600.89,5994.56 3600.85,5994.85 3598.60,5998.60 3594.85,6000.85 3589.60,6001.60" />
    </edge>
    <edge id=":N16_12" function="internal">
        <lane id=":N16_12_0" index="0" speed="10.34" length="9.03" shape="3589.60,5995.20 3592.05,5994.85 3593.80,5993.80 3594.85,5992.05 3595.20,5989.60" />
    </edge>
    <edge id=":N16_13" function="internal">
        <lane id=":N16_13_0" index="0" speed="11.25" length="20.80" shape="3589.60,5995.20 3610.40,5995.20" />
        <lane id=":N16_13_1" index="1" speed="11.25" length="20.80" shape="3589.60,5998.40 3610.40,5998.40" />
    </edge>
    <edge id=":N16_15" function="internal">
        <lane id=":N16_15_0" index="0" speed="10.82" length="5.01" shape="3589.60,5998.40 3594.56,5999.11" />
    </edge>
    <edge id=":N16_19" function="internal">
        <lane id=":N16_19_0" index="0" speed="10.82" length="14.34" shape="3594.56,5999.11 3594.85,5999.15 3598.60,6001.40 3600.85,6005.15 3601.60,6010.40" />
    </edge>
    <edge id=":N17_0" function="internal">
        <lane id=":N17_0_0" index="0" speed="10.34" length="9.03" shape="3595.20,8410.40 3594.85,8407.95 3593.80,8406.20 3592.05,8405.15 3589.60,8404.80" />
    </edge>
    <edge id=":N17_1" function="internal">
        <lane id=":N17_1_0" index="0" speed="11.71" length="20.80" shape="3595.20,8410.40 3595.20,8389.60" />
        <lane id=":N17_1_1" index="1" speed="11.71" length="20.80" shape="3598.40,8410.40 3598.40,8389.60" />
    </edge>
    <edge id=":N17_3" function="internal">
        <lane id=":N17_3_0" index="0" speed="12.03" length="5.01" shape="3598.40,8410.40 3599.11,8405.44" />
    </edge>
    <edge id=":N17_16" function="internal">
        <lane id=":N17_16_0" index="0" speed="12.03" length="14.34" shape="3599.11,8405.44 3599.15,8405.15 3601.40,8401.40 3605.15,8399.15 3610.40,8398.40" />
    </edge>
    <edge id=":N17_4" function="internal">
        <lane id=":N17_4_0" index="0" speed="9.22" length="9.03" shape="3610.40,8404.80 3607.95,8405.15 3606.20,8406.20 3605.15,8407.95 3604.80,8410.40" />
    </edge>
    <edge id=":N17_5" function="internal">
        <lane id=":N17_5_0" index="0" speed="9.04" length="20.80" shape="3610.40,8404.80 3589.60,8404.80" />
        <lane id=":N17_5_1" index="1" speed="9.04" length="20.80" shape="3610.40,8401.60 3589.60,8401.60" />
    </edge>
    <edge id=":N17_7" function="internal">
        <lane id=":N17_7_0" index="0" speed="9.70" length="5.01" shape="3610.40,8401.60 3605.44,8400.89" />
    </edge>
    <edge id=":N17_17" function="internal">
        <lane id=":N17_17_0" index="0" speed="9.70" length="14.34" shape="3605.44,8400.89 3605.15,8400.85 3601.40,8398.60 3599.15,8394.85 3598.40,8389.60" />
    </edge>
    <edge id=":N17_8" function="internal">
        <lane id=":N17_8_0" index="0" speed="10.34" length="9.03" shape="3604.80,8389.60 3605.15,8392.05 3606.20,8393.80 3607.95,8394.85 3610.40,8395.20" />
    </edge>
    <edge id=":N17_9" function="internal">
        <lane id=":N17_9_0" index="0" speed="10.02" length="20.80" shape="3604.80,8389.60 3604.80,8410.40" />
        <lane id=":N17_9_1" index="1" speed="10.02" length="20.80" shape="3601.60,8389.60 3601.60,8410.40" />
    </edge>
    <edge id=":N17_11" function="internal">
        <lane id=":N17_11_0" index="0" speed="9.84" length="5.01" shape="3601.60,8389.60 3600.89,8394.56" />
    </edge>
    <edge id=":N17_18" function="internal">
        <lane id=":N17_18_0" index="0" speed="9.84" length="14.34" shape="3600.89,8394.56 3600.85,8394.85 3598.60,8398.60 3594.85,8400.85 3589.60,8401.60" />
    </edge>
    <edge id=":N17_12" function="internal">
        <lane id=":N17_12_0" index="0" speed="10.34" length="9.03" shape="3589.60,8395.20 3592.05,8394.85 3593.80,8393.80 3594.85,8392.05 3595.20,8389.60" />
    </edge>
    <edge id=":N17_13" function="internal">
        <lane id=":N17_13_0" index="0" speed="12.05" length="20.80" shape="3589.60,8395.20 3610.40,8395.20" />
        <lane id=":N17_13_1" index="1" speed="12.05" length="20.80" shape="3589.60,8398.40 3610.40,8398.40" />
    </edge>
    <edge id=":N17_15" function="internal">
        <lane id=":N17_15_0" index="0" speed="11.26" length="5.01" shape="3589.60,8398.40 3594.56,8399.11" />
    </edge>
    <edge id=":N17_19" function="internal">
        <lane id=":N17_19_0" index="0" speed="11.26" length="14.34" shape="3594.56,8399.11 3594.85,8399.15 3598.60,8401.40 3600.85,8405.15 3601.60,8410.40" />
    </edge>
    <edge id=":N18_0" function="internal">
        <lane id=":N18_0_0" index="0" speed="10.34" length="9.03" shape="3595.20,10810.40 3594.85,10807.95 3593.80,10806.20 3592.05,10805.15 3589.60,10804.80" />
    </edge>
    <edge id=":N18_1" function="internal">
        <lane id=":N18_1_0" index="0" speed="12.06" length="20.80" shape="3595.20,10810.40 3595.20,10789.60" />
        <lane id=":N18_1_1" index="1" speed="12.06" length="20.80" shape="3598.40,10810.40 3598.40,10789.60" />
    </edge>
    <edge id=":N18_3" function="internal">
        <lane id=":N18_3_0" index="0" speed="11.80" length="5.01" shape="3598.40,10810.40 3599.11,10805.44" />
    </edge>
    <edge id=":N18_16" function="internal">
        <lane id=":N18_16_0" index="0" speed="11.80" length="14.34" shape="3599.11,10805.44 3599.15,10805.15 3601.40,10801.40 3605.15,10799.15 3610.40,10798.40" />
    </edge>
    <edge id=":N18_4" function="internal">
        <lane id=":N18_4_0" index="0" speed="10.34" length="9.03" shape="3610.40,10804.80 3607.95,10805.15 3606.20,10806.20 3605.15,10807.95 3604.80,10810.40" />
    </edge>
    <edge id=":N18_5" function="internal">
        <lane id=":N18_5_0" index="0" speed="11.07" length="20.80" shape="3610.40,10804.80 3589.60,10804.80" />
        <lane id=":N18_5_1" index="1" speed="11.07" length="20.80" shape="3610.40,10801.60 3589.60,10801.60" />
    </edge>
    <edge id=":N18_7" function="internal">
        <lane id=":N18_7_0" index="0" speed="11.79" length="5.01" shape="3610.40,10801.60 3605.44,10800.89" />
    </edge>
    <edge id=":N18_17" function="internal">
        <lane id=":N18_17_0" index="0" speed="11.79" length="14.34" shape="3605.44,10800.89 3605.15,10800.85 3601.40,10798.60 3599.15,10794.85 3598.40,10789.60" />
    </edge>
    <edge id=":N18_8" function="internal">
        <lane id=":N18_8_0" index="0" speed="10.34" length="9.03" shape="3604.80,10789.60 3605.15,10792.05 3606.20,10793.80 3607.95,10794.85 3610.40,10795.20" />
    </edge>
    <edge id=":N18_9" function="internal">
        <lane id=":N18_9_0" index="0" speed="10.63" length="20.80" shape="3604.80,10789.60 3604.80,10810.40" />
        <lane id=":N18_9_1" index="1" speed="10.63" length="20.80" shape="3601.60,10789.60 3601.60,10810.40" />
    </edge>
    <edge id=":N18_11" function="internal">
        <lane id=":N18_11_0" index="0" speed="10.51" length="5.01" shape="3601.60,10789.60 3600.89,10794.56" />
    </edge>
    <edge id=":N18_18" function="internal">
        <lane id=":N18_18_0" index="0" speed="10.51" length="14.34" shape="3600.89,10794.56 3600.85,10794.85 3598.60,10798.60 3594.85,10800.85 3589.60,10801.60" />
    </edge>
    <edge id=":N18_12" function="internal">
        <lane id=":N18_12_0" index="0" speed="10.34" length="9.03" shape="3589.60,10795.20 3592.05,10794.85 3593.80,10793.80 3594.85,10792.05 3595.20,10789.60" />
    </edge>
    <edge id=":N18_13" function="internal">
        <lane id=":N18_13_0" index="0" speed="12.94" length="20.80" shape="3589.60,10795.20 3610.40,10795.20" />
        <lane id=":N18_13_1" index="1" speed="12.94" length="20.80" shape="3589.60,10798.40 3610.40,10798.40" />
    </edge>
    <edge id=":N18_15" function="internal">
        <lane id=":N18_15_0" index="0" speed="12.59" length="5.01" shape="3589.60,10798.40 3594.56,10799.11" />
    </edge>
    <edge id=":N18_19" function="internal">
        <lane id=":N18_19_0" index="0" speed="12.59" length="14.34" shape="3594.56,10799.11 3594.85,10799.15 3598.60,10801.40 3600.85,10805.15 3601.60,10810.40" />
    </edge>
    <edge id=":N21_0" function="internal">
        <lane id=":N21_0_0" index="0" speed="10.34" length="9.03" shape="5995.20,1210.40 5994.85,1207.95 5993.80,1206.20 5992.05,1205.15 5989.60,1204.80" />
    </edge>
    <edge id=":N21_1" function="internal">
        <lane id=":N21_1_0" index="0" speed="12.74" length="20.80" shape="5995.20,1210.40 5995.20,1189.60" />
        <lane id=":N21_1_1" index="1" speed="12.74" length="20.80" shape="5998.40,1210.40 5998.40,1189.60" />
    </edge>
    <edge id=":N21_3" function="internal">
        <lane id=":N21_3_0" index="0" speed="11.49" length="5.01" shape="5998.40,1210.40 5999.11,1205.44" />
    </edge>
    <edge id=":N21_16" function="internal">
        <lane id=":N21_16_0" index="0" speed="11.49" length="14.34" shape="5999.11,1205.44 5999.15,1205.15 6001.40,1201.40 6005.15,1199.15 6010.40,1198.40" />
    </edge>
    <edge id=":N21_4" function="internal">
        <lane id=":N21_4_0" index="0" speed="10.34" length="9.03" shape="6010.40,1204.80 6007.95,1205.15 6006.20,1206.20 6005.15,1207.95 6004.80,1210.40" />
    </edge>
    <edge id=":N21_5" function="internal">
        <lane id=":N21_5_0" index="0" speed="11.74" length="20.80" shape="6010.40,1204.80 5989.60,1204.80" />
        <lane id=":N21_5_1" index="1" speed="11.74" length="20.80" shape="6010.40,1201.60 5989.60,1201.60" />
    </edge>
    <edge id=":N21_7" function="internal">
        <lane id=":N21_7_0" index="0" speed="11.94" length="5.01" shape="6010.40,1201.60 6005.44,1200.89" />
    </edge>
    <edge id=":N21_17" function="internal">
        <lane id=":N21_17_0" index="0" speed="11.94" length="14.34" shape="6005.44,1200.89 6005.15,1200.85 6001.40,1198.60 5999.15,1194.85 5998.40,1189.60" />
    </edge>
    <edge id=":N21_8" function="internal">
        <lane id=":N21_8_0" index="0" speed="10.34" length="9.03" shape="6004.80,1189.60 6005.15,1192.05 6006.20,1193.80 6007.95,1194.85 6010.40,1195.20" />
    </edge>
    <edge id=":N21_9" function="internal">
        <lane id=":N21_9_0" index="0" speed="12.65" length="20.80" shape="6004.80,1189.60 6004.80,1210.40" />
        <lane id=":N21_9_1" index="1" speed="12.65" length="20.80" shape="6001.60,1189.60 6001.60,1210.40" />
    </edge>
    <edge id=":N21_11" function="internal">
        <lane id=":N21_11_0" index="0" speed="12.12" length="5.01" shape="6001.60,1189.60 6000.89,1194.56" />
    </edge>
    <edge id=":N21_18" function="internal">
        <lane id=":N21_18_0" index="0" speed="12.12" length="14.34" shape="6000.89,1194.56 6000.85,1194.85 5998.60,1198.60 5994.85,1200.85 5989.60,1201.60" />
    </edge>
    <edge id=":N21_12" function="internal">
        <lane id=":N21_12_0" index="0" speed="10.34" length="9.03" shape="5989.60,1195.20 5992.05,1194.85 5993.80,1193.80 5994.85,1192.05 5995.20,1189.60" />
    </edge>
    <edge id=":N21_13" function="internal">
        <lane id=":N21_13_0" index="0" speed="11.31" length="20.80" shape="5989.60,1195.20 6010.40,1195.20" />
        <lane id=":N21_13_1" index="1" speed="11.31" length="20.80" shape="5989.60,1198.40 6010.40,1198.40" />
    </edge>
    <edge id=":N21_15" function="internal">
        <lane id=":N21_15_0" index="0" speed="12.91" length="5.01" shape="5989.60,1198.40 5994.56,1199.11" />
    </edge>
    <edge id=":N21_19" function="internal">
        <lane id=":N21_19_0" index="0" speed="12.91" length="14.34" shape="5994.56,1199.11 5994.85,1199.15 5998.60,1201.40 6000.85,1205.15 6001.60,1210.40" />
    </edge>
    <edge id=":N22_0" function="internal">
        <lane id=":N22_0_0" index="0" speed="10.34" length="9.03" shape="5995.20,3610.40 5994.85,3607.95 5993.80,3606.20 5992.05,3605.15 5989.60,3604.80" />
    </edge>
    <edge id=":N22_1" function="internal">
        <lane id=":N22_1_0" index="0" speed="12.34" length="20.80" shape="5995.20,3610.40 5995.20,3589.60" />
        <lane id=":N22_1_1" index="1" speed="12.34" length="20.80" shape="5998.40,3610.40 5998.40,3589.60" />
    </edge>
    <edge id=":N22_3" function="internal">
        <lane id=":N22_3_0" index="0" speed="11.80" length="5.01" shape="5998.40,3610.40 5999.11,3605.44" />
    </edge>
    <edge id=":N22_16" function="internal">
        <lane id=":N22_16_0" index="0" speed="11.80" length="14.34" shape="5999.11,3605.44 5999.15,3605.15 6001.40,3601.40 6005.15,3599.15 6010.40,3598.40" />
    </edge>
    <edge id=":N22_4" function="internal">
        <lane id=":N22_4_0" index="0" speed="10.34" length="9.03" shape="6010.40,3604.80 6007.95,3605.15 6006.20,3606.20 6005.15,3607.95 6004.80,3610.40" />
    </edge>
    <edge id=":N22_5" function="internal">
        <lane id=":N22_5_0" index="0" speed="11.86" length="20.80" shape="6010.40,3604.80 5989.60,3604.80" />