<tazs>
  <taz id="taz_0" shape="1200.0,-10.0 1190.0,0.0 1200.0,10.0 1210.0,0.0 1200.0,-10.0" color="blue">
    <tazSource id="E2" weight="1.0"/>
    <tazSink id="E2" weight="1.0"/>
    <tazSource id="-E2" weight="1.0"/>
    <tazSink id="-E2" weight="1.0"/>
  </taz>
  <taz id="taz_1" shape="0.0,1190.0 -10.0,1200.0 0.0,1210.0 10.0,1200.0 0.0,1190.0" color="blue">
    <tazSource id="E3" weight="1.0"/>
    <tazSink id="E3" weight="1.0"/>
    <tazSource id="-E3" weight="1.0"/>
    <tazSink id="-E3" weight="1.0"/>
  </taz>
  <taz id="taz_2" shape="0.0,3590.0 -10.0,3600.0 0.0,3610.0 10.0,3600.0 0.0,3590.0" color="blue">
    <tazSource id="E7" weight="1.0"/>
    <tazSink id="E7" weight="1.0"/>
    <tazSource id="-E7" weight="1.0"/>
    <tazSink id="-E7" weight="1.0"/>
  </taz>
  <taz id="taz_3" shape="0.0,5990.0 -10.0,6000.0 0.0,6010.0 10.0,6000.0 0.0,5990.0" color="blue">
    <tazSource id="E11" weight="1.0"/>
    <tazSink id="E11" weight="1.0"/>
    <tazSource id="-E11" weight="1.0"/>
    <tazSink id="-E11" weight="1.0"/>
  </taz>
  <taz id="taz_4" shape="0.0,8390.0 -10.0,8400.0 0.0,8410.0 10.0,8400.0 0.0,8390.0" color="blue">
    <tazSource id="E15" weight="1.0"/>
    <tazSink id="E15" weight="1.0"/>
    <tazSource id="-E15" weight="1.0"/>
    <tazSink id="-E15" weight="1.0"/>
  </taz>
  <taz id="taz_5" shape="1200.0,11990.0 1190.0,12000.0 1200.0,12010.0 1210.0,12000.0 1200.0,11990.0" color="blue">
    <tazSource id="E16" weight="1.0"/>
    <tazSink id="E16" weight="1.0"/>
    <tazSource id="-E16" weight="1.0"/>
    <tazSink id="-E16" weight="1.0"/>
  </taz>
  <taz id="taz_6" shape="0.0,10790.0 -10.0,10800.0 0.0,10810.0 10.0,10800.0 0.0,10790.0" color="blue">
    <tazSource id="E19" weight="1.0"/>
    <tazSink id="E19" weight="1.0"/>
    <tazSource id="-E19" weight="1.0"/>
    <tazSink id="-E19" weight="1.0"/>
  </taz>
  <taz id="taz_7" shape="3600.0,-10.0 3590.0,0.0 3600.0,10.0 3610.0,0.0 3600.0,-10.0" color="blue">
    <tazSource id="E22" weight="1.0"/>
    <tazSink id="E22" weight="1.0"/>
    <tazSource id="-E22" weight="1.0"/>
    <tazSink id="-E22" weight="1.0"/>
  </taz>
  <taz id="taz_8" shape="3600.0,11990.0 3590.0,12000.0 3600.0,12010.0 3610.0,12000.0 3600.0,11990.0" color="blue">
    <tazSource id="E36" weight="1.0"/>
    <tazSink id="E36" weight="1.0"/>
    <tazSource id="-E36" weight="1.0"/>
    <tazSink id="-E36" weight="1.0"/>
  </taz>
  <taz id="taz_9" shape="6000.0,-10.0 5990.0,0.0 6000.0,10.0 6010.0,0.0 6000.0,-10.0" color="blue">
    <tazSource id="E42" weight="1.0"/>
    <tazSink id="E42" weight="1.0"/>
    <tazSource id="-E42" weight="1.0"/>
    <tazSink id="-E42" weight="1.0"/>
  </taz>
  <taz id="taz_10" shape="6000.0,11990.0 5990.0,12000.0 6000.0,12010.0 6010.0,12000.0 6000.0,11990.0" color="blue">
    <tazSource id="E56" weight="1.0"/>
    <tazSink id="E56" weight="1.0"/>
    <tazSource id="-E56" weight="1.0"/>
    <tazSink id="-E56" weight="1.0"/>
  </taz>
  <taz id="taz_11" shape="8400.0,-10.0 8390.0,0.0 8400.0,10.0 8410.0,0.0 8400.0,-10.0" color="blue">
    <tazSource id="E62" weight="1.0"/>
    <tazSink id="E62" weight="1.0"/>
    <tazSource id="-E62" weight="1.0"/>
    <tazSink id="-E62" weight="1.0"/>
  </taz>
  <taz id="taz_12" shape="8400.0,11990.0 8390.0,12000.0 8400.0,12010.0 8410.0,12000.0 8400.0,11990.0" color="blue">
    <tazSource id="E76" weight="1.0"/>
    <tazSink id="E76" weight="1.0"/>
    <tazSource id="-E76" weight="1.0"/>
    <tazSink id="-E76" weight="1.0"/>
  </taz>
  <taz id="taz_13" shape="12000.0,1190.0 11990.0,1200.0 12000.0,1210.0 12010.0,1200.0 12000.0,1190.0" color="blue">
    <tazSource id="E81" weight="1.0"/>
    <tazSink id="E81" weight="1.0"/>
    <tazSource id="-E81" weight="1.0"/>
    <tazSink id="-E81" weight="1.0"/>
  </taz>
  <taz id="taz_14" shape="10800.0,-10.0 10790.0,0.0 10800.0,10.0 10810.0,0.0 10800.0,-10.0" color="blue">
    <tazSource id="E82" weight="1.0"/>
    <tazSink id="E82" weight="1.0"/>
    <tazSource id="-E82" weight="1.0"/>
    <tazSink id="-E82" weight="1.0"/>
  </taz>
  <taz id="taz_15" shape="12000.0,3590.0 11990.0,3600.0 12000.0,3610.0 12010.0,3600.0 12000.0,3590.0" color="blue">
    <tazSource id="E85" weight="1.0"/>
    <tazSink id="E85" weight="1.0"/>
    <tazSource id="-E85" weight="1.0"/>
    <tazSink id="-E85" weight="1.0"/>
  </taz>
  <taz id="taz_16" shape="12000.0,5990.0 11990.0,6000.0 12000.0,6010.0 12010.0,6000.0 12000.0,5990.0" color="blue">
    <tazSource id="E89" weight="1.0"/>
    <tazSink id="E89" weight="1.0"/>
    <tazSource id="-E89" weight="1.0"/>
    <tazSink id="-E89" weight="1.0"/>
  </taz>
  <taz id="taz_17" shape="12000.0,8390.0 11990.0,8400.0 12000.0,8410.0 12010.0,8400.0 12000.0,8390.0" color="blue">
    <tazSource id="E93" weight="1.0"/>
    <tazSink id="E93" weight="1.0"/>
    <tazSource id="-E93" weight="1.0"/>
    <tazSink id="-E93" weight="1.0"/>
  </taz>
  <taz id="taz_18" shape="10800.0,11990.0 10790.0,12000.0 10800.0,12010.0 10810.0,12000.0 10800.0,11990.0" color="blue">
    <tazSource id="E96" weight="1.0"/>
    <tazSink id="E96" weight="1.0"/>
    <tazSource id="-E96" weight="1.0"/>
    <tazSink id="-E96" weight="1.0"/>
  </taz>
  <taz id="taz_19" shape="12000.0,10790.0 11990.0,10800.0 12000.0,10810.0 12010.0,10800.0 12000.0,10790.0" color="blue">
    <tazSource id="E97" weight="1.0"/>
    <tazSink id="E97" weight="1.0"/>
    <tazSource id="-E97" weight="1.0"/>
    <tazSink id="-E97" weight="1.0"/>
  </taz>
</tazs>
