<nodes>
<node id="N1" x="0.0" y="1200.0" type="dead_end"/>
<node id="N2" x="0.0" y="3600.0" type="dead_end"/>
<node id="N3" x="0.0" y="6000.0" type="dead_end"/>
<node id="N4" x="0.0" y="8400.0" type="dead_end"/>
<node id="N5" x="0.0" y="10800.0" type="dead_end"/>
<node id="N6" x="1200.0" y="0.0" type="dead_end"/>
<node id="N7" x="1200.0" y="1200.0" type="traffic_light"/>
<node id="N8" x="1200.0" y="3600.0" type="traffic_light"/>
<node id="N9" x="1200.0" y="6000.0" type="traffic_light"/>
<node id="N10" x="1200.0" y="8400.0" type="traffic_light"/>
<node id="N11" x="1200.0" y="10800.0" type="traffic_light"/>
<node id="N12" x="1200.0" y="12000.0" type="dead_end"/>
<node id="N13" x="3600.0" y="0.0" type="dead_end"/>
<node id="N14" x="3600.0" y="1200.0" type="traffic_light"/>
<node id="N15" x="3600.0" y="3600.0" type="traffic_light"/>
<node id="N16" x="3600.0" y="6000.0" type="traffic_light"/>
<node id="N17" x="3600.0" y="8400.0" type="traffic_light"/>
<node id="N18" x="3600.0" y="10800.0" type="traffic_light"/>
<node id="N19" x="3600.0" y="12000.0" type="dead_end"/>
<node id="N20" x="6000.0" y="0.0" type="dead_end"/>
<node id="N21" x="6000.0" y="1200.0" type="traffic_light"/>
<node id="N22" x="6000.0" y="3600.0" type="traffic_light"/>
<node id="N23" x="6000.0" y="6000.0" type="traffic_light"/>
<node id="N24" x="6000.0" y="8400.0" type="traffic_light"/>
<node id="N25" x="6000.0" y="10800.0" type="traffic_light"/>
<node id="N26" x="6000.0" y="12000.0" type="dead_end"/>
<node id="N27" x="8400.0" y="0.0" type="dead_end"/>
<node id="N28" x="8400.0" y="1200.0" type="traffic_light"/>
<node id="N29" x="8400.0" y="3600.0" type="traffic_light"/>
<node id="N30" x="8400.0" y="6000.0" type="traffic_light"/>
<node id="N31" x="8400.0" y="8400.0" type="traffic_light"/>
<node id="N32" x="8400.0" y="10800.0" type="traffic_light"/>
<node id="N33" x="8400.0" y="12000.0" type="dead_end"/>
<node id="N34" x="10800.0" y="0.0" type="dead_end"/>
<node id="N35" x="10800.0" y="1200.0" type="traffic_light"/>
<node id="N36" x="10800.0" y="3600.0" type="traffic_light"/>
<node id="N37" x="10800.0" y="6000.0" type="traffic_light"/>
<node id="N38" x="10800.0" y="8400.0" type="traffic_light"/>
<node id="N39" x="10800.0" y="10800.0" type="traffic_light"/>
<node id="N40" x="10800.0" y="12000.0" type="dead_end"/>
<node id="N41" x="12000.0" y="1200.0" type="dead_end"/>
<node id="N42" x="12000.0" y="3600.0" type="dead_end"/>
<node id="N43" x="12000.0" y="6000.0" type="dead_end"/>
<node id="N44" x="12000.0" y="8400.0" type="dead_end"/>
<node id="N45" x="12000.0" y="10800.0" type="dead_end"/>
</nodes>